
---------- Begin Simulation Statistics ----------
simSeconds                                   0.000197                       # Number of seconds simulated (Second)
simTicks                                    197362440                       # Number of ticks simulated (Tick)
finalTick                                   214297488                       # Number of ticks from beginning of simulation (restored from checkpoints and never reset) (Tick)
simFreq                                  1000000000000                       # The number of ticks per simulated second ((Tick/Second))
hostSeconds                                      0.75                       # Real time elapsed on the host (Second)
hostTickRate                                263137392                       # The number of ticks simulated per host second (ticks/s) ((Tick/Second))
hostMemory                                     207636                       # Number of bytes of host memory used (Byte)
simInsts                                       179408                       # Number of instructions simulated (Count)
simOps                                         181675                       # Number of ops (including micro ops) simulated (Count)
hostInstRate                                   239157                       # Simulator instruction rate (inst/s) ((Count/Second))
hostOpRate                                     242177                       # Simulator op (including micro ops) rate (op/s) ((Count/Second))
board.cache_hierarchy.dcache.demandHits::processor.cores.core.data        72950                       # number of demand (read+write) hits (Count)
board.cache_hierarchy.dcache.demandHits::total        72950                       # number of demand (read+write) hits (Count)
board.cache_hierarchy.dcache.overallHits::processor.cores.core.data        72950                       # number of overall hits (Count)
board.cache_hierarchy.dcache.overallHits::total        72950                       # number of overall hits (Count)
board.cache_hierarchy.dcache.demandMisses::processor.cores.core.data            4                       # number of demand (read+write) misses (Count)
board.cache_hierarchy.dcache.demandMisses::total            4                       # number of demand (read+write) misses (Count)
board.cache_hierarchy.dcache.overallMisses::processor.cores.core.data            4                       # number of overall misses (Count)
board.cache_hierarchy.dcache.overallMisses::total            4                       # number of overall misses (Count)
board.cache_hierarchy.dcache.demandMissLatency::processor.cores.core.data       226107                       # number of demand (read+write) miss ticks (Tick)
board.cache_hierarchy.dcache.demandMissLatency::total       226107                       # number of demand (read+write) miss ticks (Tick)
board.cache_hierarchy.dcache.overallMissLatency::processor.cores.core.data       226107                       # number of overall miss ticks (Tick)
board.cache_hierarchy.dcache.overallMissLatency::total       226107                       # number of overall miss ticks (Tick)
board.cache_hierarchy.dcache.demandAccesses::processor.cores.core.data        72954                       # number of demand (read+write) accesses (Count)
board.cache_hierarchy.dcache.demandAccesses::total        72954                       # number of demand (read+write) accesses (Count)
board.cache_hierarchy.dcache.overallAccesses::processor.cores.core.data        72954                       # number of overall (read+write) accesses (Count)
board.cache_hierarchy.dcache.overallAccesses::total        72954                       # number of overall (read+write) accesses (Count)
board.cache_hierarchy.dcache.demandMissRate::processor.cores.core.data     0.000055                       # miss rate for demand accesses (Ratio)
board.cache_hierarchy.dcache.demandMissRate::total     0.000055                       # miss rate for demand accesses (Ratio)
board.cache_hierarchy.dcache.overallMissRate::processor.cores.core.data     0.000055                       # miss rate for overall accesses (Ratio)
board.cache_hierarchy.dcache.overallMissRate::total     0.000055                       # miss rate for overall accesses (Ratio)
board.cache_hierarchy.dcache.demandAvgMissLatency::processor.cores.core.data 56526.750000                       # average overall miss latency in ticks ((Tick/Count))
board.cache_hierarchy.dcache.demandAvgMissLatency::total 56526.750000                       # average overall miss latency in ticks ((Tick/Count))
board.cache_hierarchy.dcache.overallAvgMissLatency::processor.cores.core.data 56526.750000                       # average overall miss latency ((Tick/Count))
board.cache_hierarchy.dcache.overallAvgMissLatency::total 56526.750000                       # average overall miss latency ((Tick/Count))
board.cache_hierarchy.dcache.blockedCycles::no_mshrs            0                       # number of cycles access was blocked (Cycle)
board.cache_hierarchy.dcache.blockedCycles::no_targets            0                       # number of cycles access was blocked (Cycle)
board.cache_hierarchy.dcache.blockedCauses::no_mshrs            0                       # number of times access was blocked (Count)
board.cache_hierarchy.dcache.blockedCauses::no_targets            0                       # number of times access was blocked (Count)
board.cache_hierarchy.dcache.avgBlocked::no_mshrs          nan                       # average number of cycles each access was blocked ((Cycle/Count))
board.cache_hierarchy.dcache.avgBlocked::no_targets          nan                       # average number of cycles each access was blocked ((Cycle/Count))
board.cache_hierarchy.dcache.demandMshrHits::processor.cores.core.data            2                       # number of demand (read+write) MSHR hits (Count)
board.cache_hierarchy.dcache.demandMshrHits::total            2                       # number of demand (read+write) MSHR hits (Count)
board.cache_hierarchy.dcache.overallMshrHits::processor.cores.core.data            2                       # number of overall MSHR hits (Count)
board.cache_hierarchy.dcache.overallMshrHits::total            2                       # number of overall MSHR hits (Count)
board.cache_hierarchy.dcache.demandMshrMisses::processor.cores.core.data            2                       # number of demand (read+write) MSHR misses (Count)
board.cache_hierarchy.dcache.demandMshrMisses::total            2                       # number of demand (read+write) MSHR misses (Count)
board.cache_hierarchy.dcache.overallMshrMisses::processor.cores.core.data            2                       # number of overall MSHR misses (Count)
board.cache_hierarchy.dcache.overallMshrMisses::total            2                       # number of overall MSHR misses (Count)
board.cache_hierarchy.dcache.demandMshrMissLatency::processor.cores.core.data       112554                       # number of demand (read+write) MSHR miss ticks (Tick)
board.cache_hierarchy.dcache.demandMshrMissLatency::total       112554                       # number of demand (read+write) MSHR miss ticks (Tick)
board.cache_hierarchy.dcache.overallMshrMissLatency::processor.cores.core.data       112554                       # number of overall MSHR miss ticks (Tick)
board.cache_hierarchy.dcache.overallMshrMissLatency::total       112554                       # number of overall MSHR miss ticks (Tick)
board.cache_hierarchy.dcache.demandMshrMissRate::processor.cores.core.data     0.000027                       # mshr miss ratio for demand accesses (Ratio)
board.cache_hierarchy.dcache.demandMshrMissRate::total     0.000027                       # mshr miss ratio for demand accesses (Ratio)
board.cache_hierarchy.dcache.overallMshrMissRate::processor.cores.core.data     0.000027                       # mshr miss ratio for overall accesses (Ratio)
board.cache_hierarchy.dcache.overallMshrMissRate::total     0.000027                       # mshr miss ratio for overall accesses (Ratio)
board.cache_hierarchy.dcache.demandAvgMshrMissLatency::processor.cores.core.data        56277                       # average overall mshr miss latency ((Tick/Count))
board.cache_hierarchy.dcache.demandAvgMshrMissLatency::total        56277                       # average overall mshr miss latency ((Tick/Count))
board.cache_hierarchy.dcache.overallAvgMshrMissLatency::processor.cores.core.data        56277                       # average overall mshr miss latency ((Tick/Count))
board.cache_hierarchy.dcache.overallAvgMshrMissLatency::total        56277                       # average overall mshr miss latency ((Tick/Count))
board.cache_hierarchy.dcache.replacements            0                       # number of replacements (Count)
board.cache_hierarchy.dcache.LoadLockedReq.hits::processor.cores.core.data           10                       # number of LoadLockedReq hits (Count)
board.cache_hierarchy.dcache.LoadLockedReq.hits::total           10                       # number of LoadLockedReq hits (Count)
board.cache_hierarchy.dcache.LoadLockedReq.accesses::processor.cores.core.data           10                       # number of LoadLockedReq accesses(hits+misses) (Count)
board.cache_hierarchy.dcache.LoadLockedReq.accesses::total           10                       # number of LoadLockedReq accesses(hits+misses) (Count)
board.cache_hierarchy.dcache.ReadReq.hits::processor.cores.core.data        51051                       # number of ReadReq hits (Count)
board.cache_hierarchy.dcache.ReadReq.hits::total        51051                       # number of ReadReq hits (Count)
board.cache_hierarchy.dcache.ReadReq.accesses::processor.cores.core.data        51051                       # number of ReadReq accesses(hits+misses) (Count)
board.cache_hierarchy.dcache.ReadReq.accesses::total        51051                       # number of ReadReq accesses(hits+misses) (Count)
board.cache_hierarchy.dcache.SwapReq.hits::processor.cores.core.data           20                       # number of SwapReq hits (Count)
board.cache_hierarchy.dcache.SwapReq.hits::total           20                       # number of SwapReq hits (Count)
board.cache_hierarchy.dcache.SwapReq.accesses::processor.cores.core.data           20                       # number of SwapReq accesses(hits+misses) (Count)
board.cache_hierarchy.dcache.SwapReq.accesses::total           20                       # number of SwapReq accesses(hits+misses) (Count)
board.cache_hierarchy.dcache.WriteReq.hits::processor.cores.core.data        21899                       # number of WriteReq hits (Count)
board.cache_hierarchy.dcache.WriteReq.hits::total        21899                       # number of WriteReq hits (Count)
board.cache_hierarchy.dcache.WriteReq.misses::processor.cores.core.data            4                       # number of WriteReq misses (Count)
board.cache_hierarchy.dcache.WriteReq.misses::total            4                       # number of WriteReq misses (Count)
board.cache_hierarchy.dcache.WriteReq.missLatency::processor.cores.core.data       226107                       # number of WriteReq miss ticks (Tick)
board.cache_hierarchy.dcache.WriteReq.missLatency::total       226107                       # number of WriteReq miss ticks (Tick)
board.cache_hierarchy.dcache.WriteReq.accesses::processor.cores.core.data        21903                       # number of WriteReq accesses(hits+misses) (Count)
board.cache_hierarchy.dcache.WriteReq.accesses::total        21903                       # number of WriteReq accesses(hits+misses) (Count)
board.cache_hierarchy.dcache.WriteReq.missRate::processor.cores.core.data     0.000183                       # miss rate for WriteReq accesses (Ratio)
board.cache_hierarchy.dcache.WriteReq.missRate::total     0.000183                       # miss rate for WriteReq accesses (Ratio)
board.cache_hierarchy.dcache.WriteReq.avgMissLatency::processor.cores.core.data 56526.750000                       # average WriteReq miss latency ((Tick/Count))
board.cache_hierarchy.dcache.WriteReq.avgMissLatency::total 56526.750000                       # average WriteReq miss latency ((Tick/Count))
board.cache_hierarchy.dcache.WriteReq.mshrHits::processor.cores.core.data            2                       # number of WriteReq MSHR hits (Count)
board.cache_hierarchy.dcache.WriteReq.mshrHits::total            2                       # number of WriteReq MSHR hits (Count)
board.cache_hierarchy.dcache.WriteReq.mshrMisses::processor.cores.core.data            2                       # number of WriteReq MSHR misses (Count)
board.cache_hierarchy.dcache.WriteReq.mshrMisses::total            2                       # number of WriteReq MSHR misses (Count)
board.cache_hierarchy.dcache.WriteReq.mshrMissLatency::processor.cores.core.data       112554                       # number of WriteReq MSHR miss ticks (Tick)
board.cache_hierarchy.dcache.WriteReq.mshrMissLatency::total       112554                       # number of WriteReq MSHR miss ticks (Tick)
board.cache_hierarchy.dcache.WriteReq.mshrMissRate::processor.cores.core.data     0.000091                       # mshr miss rate for WriteReq accesses (Ratio)
board.cache_hierarchy.dcache.WriteReq.mshrMissRate::total     0.000091                       # mshr miss rate for WriteReq accesses (Ratio)
board.cache_hierarchy.dcache.WriteReq.avgMshrMissLatency::processor.cores.core.data        56277                       # average WriteReq mshr miss latency ((Tick/Count))
board.cache_hierarchy.dcache.WriteReq.avgMshrMissLatency::total        56277                       # average WriteReq mshr miss latency ((Tick/Count))
board.cache_hierarchy.dcache.power_state.pwrStateResidencyTicks::UNDEFINED    214297488                       # Cumulative time (in ticks) in various power states (Tick)
board.cache_hierarchy.dcache.prefetcher.demandMshrMisses            2                       # demands not covered by prefetchs (Count)
board.cache_hierarchy.dcache.prefetcher.pfIssued            0                       # number of hwpf issued (Count)
board.cache_hierarchy.dcache.prefetcher.pfUseful            0                       # number of useful prefetch (Count)
board.cache_hierarchy.dcache.prefetcher.pfUsefulButMiss            0                       # number of hit on prefetch but cache block is not in an usable state (Count)
board.cache_hierarchy.dcache.prefetcher.accuracy          nan                       # accuracy of the prefetcher (Count)
board.cache_hierarchy.dcache.prefetcher.coverage            0                       # coverage brought by this prefetcher (Count)
board.cache_hierarchy.dcache.prefetcher.pfHitInCache            0                       # number of prefetches hitting in cache (Count)
board.cache_hierarchy.dcache.prefetcher.pfHitInMSHR            0                       # number of prefetches hitting in a MSHR (Count)
board.cache_hierarchy.dcache.prefetcher.pfHitInWB            0                       # number of prefetches hit in the Write Buffer (Count)
board.cache_hierarchy.dcache.prefetcher.pfLate            0                       # number of late prefetches (hitting in cache, MSHR or WB) (Count)
board.cache_hierarchy.dcache.prefetcher.pfIdentified            0                       # number of prefetch candidates identified (Count)
board.cache_hierarchy.dcache.prefetcher.pfBufferHit            0                       # number of redundant prefetches already in prefetch queue (Count)
board.cache_hierarchy.dcache.prefetcher.pfInCache            0                       # number of redundant prefetches already in cache/mshr dropped (Count)
board.cache_hierarchy.dcache.prefetcher.pfRemovedDemand            0                       # number of prefetches dropped due to a demand for the same address (Count)
board.cache_hierarchy.dcache.prefetcher.pfRemovedFull            0                       # number of prefetches dropped due to prefetch queue size (Count)
board.cache_hierarchy.dcache.prefetcher.pfSpanPage            0                       # number of prefetches that crossed the page (Count)
board.cache_hierarchy.dcache.prefetcher.pfUsefulSpanPage            0                       # number of prefetches that is useful and crossed the page (Count)
board.cache_hierarchy.dcache.prefetcher.power_state.pwrStateResidencyTicks::UNDEFINED    214297488                       # Cumulative time (in ticks) in various power states (Tick)
board.cache_hierarchy.dcache.tags.tagsInUse   369.809784                       # Average ticks per tags in use ((Tick/Count))
board.cache_hierarchy.dcache.tags.totalRefs            0                       # Total number of references to valid blocks. (Count)
board.cache_hierarchy.dcache.tags.sampledRefs            0                       # Sample count of references to valid blocks. (Count)
board.cache_hierarchy.dcache.tags.avgRefs          nan                       # Average number of references to valid blocks. ((Count/Count))
board.cache_hierarchy.dcache.tags.warmupTick            0                       # The tick when the warmup percentage was hit. (Tick)
board.cache_hierarchy.dcache.tags.occupancies::cache_hierarchy.dcache.prefetcher          152                       # Average occupied blocks per tick, per requestor ((Count/Tick))
board.cache_hierarchy.dcache.tags.occupancies::processor.cores.core.data   217.809784                       # Average occupied blocks per tick, per requestor ((Count/Tick))
board.cache_hierarchy.dcache.tags.avgOccs::cache_hierarchy.dcache.prefetcher     0.296875                       # Average percentage of cache occupancy ((Ratio/Tick))
board.cache_hierarchy.dcache.tags.avgOccs::processor.cores.core.data     0.425410                       # Average percentage of cache occupancy ((Ratio/Tick))
board.cache_hierarchy.dcache.tags.avgOccs::total     0.722285                       # Average percentage of cache occupancy ((Ratio/Tick))
board.cache_hierarchy.dcache.tags.occupanciesTaskId::1022          152                       # Occupied blocks per task id (Count)
board.cache_hierarchy.dcache.tags.occupanciesTaskId::1024          219                       # Occupied blocks per task id (Count)
board.cache_hierarchy.dcache.tags.ageTaskId_1022::2          152                       # Occupied blocks per task id, per block age (Count)
board.cache_hierarchy.dcache.tags.ageTaskId_1024::1            1                       # Occupied blocks per task id, per block age (Count)
board.cache_hierarchy.dcache.tags.ageTaskId_1024::2          218                       # Occupied blocks per task id, per block age (Count)
board.cache_hierarchy.dcache.tags.ratioOccsTaskId::1022     0.296875                       # Ratio of occupied blocks and all blocks, per task id (Ratio)
board.cache_hierarchy.dcache.tags.ratioOccsTaskId::1024     0.427734                       # Ratio of occupied blocks and all blocks, per task id (Ratio)
board.cache_hierarchy.dcache.tags.tagAccesses       583874                       # Number of tag accesses (Count)
board.cache_hierarchy.dcache.tags.dataAccesses       583874                       # Number of data accesses (Count)
board.cache_hierarchy.dcache.tags.power_state.pwrStateResidencyTicks::UNDEFINED    214297488                       # Cumulative time (in ticks) in various power states (Tick)
board.cache_hierarchy.icache.demandHits::processor.cores.core.inst        37293                       # number of demand (read+write) hits (Count)
board.cache_hierarchy.icache.demandHits::total        37293                       # number of demand (read+write) hits (Count)
board.cache_hierarchy.icache.overallHits::processor.cores.core.inst        37293                       # number of overall hits (Count)
board.cache_hierarchy.icache.overallHits::total        37293                       # number of overall hits (Count)
board.cache_hierarchy.icache.demandMisses::processor.cores.core.inst        10672                       # number of demand (read+write) misses (Count)
board.cache_hierarchy.icache.demandMisses::total        10672                       # number of demand (read+write) misses (Count)
board.cache_hierarchy.icache.overallMisses::processor.cores.core.inst        10672                       # number of overall misses (Count)
board.cache_hierarchy.icache.overallMisses::total        10672                       # number of overall misses (Count)
board.cache_hierarchy.icache.demandMissLatency::processor.cores.core.inst    215605512                       # number of demand (read+write) miss ticks (Tick)
board.cache_hierarchy.icache.demandMissLatency::total    215605512                       # number of demand (read+write) miss ticks (Tick)
board.cache_hierarchy.icache.overallMissLatency::processor.cores.core.inst    215605512                       # number of overall miss ticks (Tick)
board.cache_hierarchy.icache.overallMissLatency::total    215605512                       # number of overall miss ticks (Tick)
board.cache_hierarchy.icache.demandAccesses::processor.cores.core.inst        47965                       # number of demand (read+write) accesses (Count)
board.cache_hierarchy.icache.demandAccesses::total        47965                       # number of demand (read+write) accesses (Count)
board.cache_hierarchy.icache.overallAccesses::processor.cores.core.inst        47965                       # number of overall (read+write) accesses (Count)
board.cache_hierarchy.icache.overallAccesses::total        47965                       # number of overall (read+write) accesses (Count)
board.cache_hierarchy.icache.demandMissRate::processor.cores.core.inst     0.222496                       # miss rate for demand accesses (Ratio)
board.cache_hierarchy.icache.demandMissRate::total     0.222496                       # miss rate for demand accesses (Ratio)
board.cache_hierarchy.icache.overallMissRate::processor.cores.core.inst     0.222496                       # miss rate for overall accesses (Ratio)
board.cache_hierarchy.icache.overallMissRate::total     0.222496                       # miss rate for overall accesses (Ratio)
board.cache_hierarchy.icache.demandAvgMissLatency::processor.cores.core.inst 20202.915292                       # average overall miss latency in ticks ((Tick/Count))
board.cache_hierarchy.icache.demandAvgMissLatency::total 20202.915292                       # average overall miss latency in ticks ((Tick/Count))
board.cache_hierarchy.icache.overallAvgMissLatency::processor.cores.core.inst 20202.915292                       # average overall miss latency ((Tick/Count))
board.cache_hierarchy.icache.overallAvgMissLatency::total 20202.915292                       # average overall miss latency ((Tick/Count))
board.cache_hierarchy.icache.blockedCycles::no_mshrs            0                       # number of cycles access was blocked (Cycle)
board.cache_hierarchy.icache.blockedCycles::no_targets            0                       # number of cycles access was blocked (Cycle)
board.cache_hierarchy.icache.blockedCauses::no_mshrs            0                       # number of times access was blocked (Count)
board.cache_hierarchy.icache.blockedCauses::no_targets            0                       # number of times access was blocked (Count)
board.cache_hierarchy.icache.avgBlocked::no_mshrs          nan                       # average number of cycles each access was blocked ((Cycle/Count))
board.cache_hierarchy.icache.avgBlocked::no_targets          nan                       # average number of cycles each access was blocked ((Cycle/Count))
board.cache_hierarchy.icache.writebacks::writebacks        10265                       # number of writebacks (Count)
board.cache_hierarchy.icache.writebacks::total        10265                       # number of writebacks (Count)
board.cache_hierarchy.icache.demandMshrHits::processor.cores.core.inst        10442                       # number of demand (read+write) MSHR hits (Count)
board.cache_hierarchy.icache.demandMshrHits::total        10442                       # number of demand (read+write) MSHR hits (Count)
board.cache_hierarchy.icache.overallMshrHits::processor.cores.core.inst        10442                       # number of overall MSHR hits (Count)
board.cache_hierarchy.icache.overallMshrHits::total        10442                       # number of overall MSHR hits (Count)
board.cache_hierarchy.icache.demandMshrMisses::processor.cores.core.inst          230                       # number of demand (read+write) MSHR misses (Count)
board.cache_hierarchy.icache.demandMshrMisses::total          230                       # number of demand (read+write) MSHR misses (Count)
board.cache_hierarchy.icache.overallMshrMisses::processor.cores.core.inst          230                       # number of overall MSHR misses (Count)
board.cache_hierarchy.icache.overallMshrMisses::cache_hierarchy.icache.prefetcher        10049                       # number of overall MSHR misses (Count)
board.cache_hierarchy.icache.overallMshrMisses::total        10279                       # number of overall MSHR misses (Count)
board.cache_hierarchy.icache.demandMshrMissLatency::processor.cores.core.inst     21090222                       # number of demand (read+write) MSHR miss ticks (Tick)
board.cache_hierarchy.icache.demandMshrMissLatency::total     21090222                       # number of demand (read+write) MSHR miss ticks (Tick)
board.cache_hierarchy.icache.overallMshrMissLatency::processor.cores.core.inst     21090222                       # number of overall MSHR miss ticks (Tick)
board.cache_hierarchy.icache.overallMshrMissLatency::cache_hierarchy.icache.prefetcher    783820063                       # number of overall MSHR miss ticks (Tick)
board.cache_hierarchy.icache.overallMshrMissLatency::total    804910285                       # number of overall MSHR miss ticks (Tick)
board.cache_hierarchy.icache.demandMshrMissRate::processor.cores.core.inst     0.004795                       # mshr miss ratio for demand accesses (Ratio)
board.cache_hierarchy.icache.demandMshrMissRate::total     0.004795                       # mshr miss ratio for demand accesses (Ratio)
board.cache_hierarchy.icache.overallMshrMissRate::processor.cores.core.inst     0.004795                       # mshr miss ratio for overall accesses (Ratio)
board.cache_hierarchy.icache.overallMshrMissRate::cache_hierarchy.icache.prefetcher          inf                       # mshr miss ratio for overall accesses (Ratio)
board.cache_hierarchy.icache.overallMshrMissRate::total     0.214302                       # mshr miss ratio for overall accesses (Ratio)
board.cache_hierarchy.icache.demandAvgMshrMissLatency::processor.cores.core.inst 91696.617391                       # average overall mshr miss latency ((Tick/Count))
board.cache_hierarchy.icache.demandAvgMshrMissLatency::total 91696.617391                       # average overall mshr miss latency ((Tick/Count))
board.cache_hierarchy.icache.overallAvgMshrMissLatency::processor.cores.core.inst 91696.617391                       # average overall mshr miss latency ((Tick/Count))
board.cache_hierarchy.icache.overallAvgMshrMissLatency::cache_hierarchy.icache.prefetcher 77999.807245                       # average overall mshr miss latency ((Tick/Count))
board.cache_hierarchy.icache.overallAvgMshrMissLatency::total 78306.283199                       # average overall mshr miss latency ((Tick/Count))
board.cache_hierarchy.icache.replacements        10265                       # number of replacements (Count)
board.cache_hierarchy.icache.HardPFReq.mshrMisses::cache_hierarchy.icache.prefetcher        10049                       # number of HardPFReq MSHR misses (Count)
board.cache_hierarchy.icache.HardPFReq.mshrMisses::total        10049                       # number of HardPFReq MSHR misses (Count)
board.cache_hierarchy.icache.HardPFReq.mshrMissLatency::cache_hierarchy.icache.prefetcher    783820063                       # number of HardPFReq MSHR miss ticks (Tick)
board.cache_hierarchy.icache.HardPFReq.mshrMissLatency::total    783820063                       # number of HardPFReq MSHR miss ticks (Tick)
board.cache_hierarchy.icache.HardPFReq.mshrMissRate::cache_hierarchy.icache.prefetcher          inf                       # mshr miss rate for HardPFReq accesses (Ratio)
board.cache_hierarchy.icache.HardPFReq.mshrMissRate::total          inf                       # mshr miss rate for HardPFReq accesses (Ratio)
board.cache_hierarchy.icache.HardPFReq.avgMshrMissLatency::cache_hierarchy.icache.prefetcher 77999.807245                       # average HardPFReq mshr miss latency ((Tick/Count))
board.cache_hierarchy.icache.HardPFReq.avgMshrMissLatency::total 77999.807245                       # average HardPFReq mshr miss latency ((Tick/Count))
board.cache_hierarchy.icache.ReadReq.hits::processor.cores.core.inst        37293                       # number of ReadReq hits (Count)
board.cache_hierarchy.icache.ReadReq.hits::total        37293                       # number of ReadReq hits (Count)
board.cache_hierarchy.icache.ReadReq.misses::processor.cores.core.inst        10672                       # number of ReadReq misses (Count)
board.cache_hierarchy.icache.ReadReq.misses::total        10672                       # number of ReadReq misses (Count)
board.cache_hierarchy.icache.ReadReq.missLatency::processor.cores.core.inst    215605512                       # number of ReadReq miss ticks (Tick)
board.cache_hierarchy.icache.ReadReq.missLatency::total    215605512                       # number of ReadReq miss ticks (Tick)
board.cache_hierarchy.icache.ReadReq.accesses::processor.cores.core.inst        47965                       # number of ReadReq accesses(hits+misses) (Count)
board.cache_hierarchy.icache.ReadReq.accesses::total        47965                       # number of ReadReq accesses(hits+misses) (Count)
board.cache_hierarchy.icache.ReadReq.missRate::processor.cores.core.inst     0.222496                       # miss rate for ReadReq accesses (Ratio)
board.cache_hierarchy.icache.ReadReq.missRate::total     0.222496                       # miss rate for ReadReq accesses (Ratio)
board.cache_hierarchy.icache.ReadReq.avgMissLatency::processor.cores.core.inst 20202.915292                       # average ReadReq miss latency ((Tick/Count))
board.cache_hierarchy.icache.ReadReq.avgMissLatency::total 20202.915292                       # average ReadReq miss latency ((Tick/Count))
board.cache_hierarchy.icache.ReadReq.mshrHits::processor.cores.core.inst        10442                       # number of ReadReq MSHR hits (Count)
board.cache_hierarchy.icache.ReadReq.mshrHits::total        10442                       # number of ReadReq MSHR hits (Count)
board.cache_hierarchy.icache.ReadReq.mshrMisses::processor.cores.core.inst          230                       # number of ReadReq MSHR misses (Count)
board.cache_hierarchy.icache.ReadReq.mshrMisses::total          230                       # number of ReadReq MSHR misses (Count)
board.cache_hierarchy.icache.ReadReq.mshrMissLatency::processor.cores.core.inst     21090222                       # number of ReadReq MSHR miss ticks (Tick)
board.cache_hierarchy.icache.ReadReq.mshrMissLatency::total     21090222                       # number of ReadReq MSHR miss ticks (Tick)
board.cache_hierarchy.icache.ReadReq.mshrMissRate::processor.cores.core.inst     0.004795                       # mshr miss rate for ReadReq accesses (Ratio)
board.cache_hierarchy.icache.ReadReq.mshrMissRate::total     0.004795                       # mshr miss rate for ReadReq accesses (Ratio)
board.cache_hierarchy.icache.ReadReq.avgMshrMissLatency::processor.cores.core.inst 91696.617391                       # average ReadReq mshr miss latency ((Tick/Count))
board.cache_hierarchy.icache.ReadReq.avgMshrMissLatency::total 91696.617391                       # average ReadReq mshr miss latency ((Tick/Count))
board.cache_hierarchy.icache.power_state.pwrStateResidencyTicks::UNDEFINED    214297488                       # Cumulative time (in ticks) in various power states (Tick)
board.cache_hierarchy.icache.prefetcher.demandMshrMisses          230                       # demands not covered by prefetchs (Count)
board.cache_hierarchy.icache.prefetcher.pfIssued        10277                       # number of hwpf issued (Count)
board.cache_hierarchy.icache.prefetcher.pfUnused          644                       # number of HardPF blocks evicted w/o reference (Count)
board.cache_hierarchy.icache.prefetcher.pfUseful          290                       # number of useful prefetch (Count)
board.cache_hierarchy.icache.prefetcher.pfUsefulButMiss            0                       # number of hit on prefetch but cache block is not in an usable state (Count)
board.cache_hierarchy.icache.prefetcher.accuracy     0.028218                       # accuracy of the prefetcher (Count)
board.cache_hierarchy.icache.prefetcher.coverage     0.557692                       # coverage brought by this prefetcher (Count)
board.cache_hierarchy.icache.prefetcher.pfHitInCache            0                       # number of prefetches hitting in cache (Count)
board.cache_hierarchy.icache.prefetcher.pfHitInMSHR          228                       # number of prefetches hitting in a MSHR (Count)
board.cache_hierarchy.icache.prefetcher.pfHitInWB            0                       # number of prefetches hit in the Write Buffer (Count)
board.cache_hierarchy.icache.prefetcher.pfLate          228                       # number of late prefetches (hitting in cache, MSHR or WB) (Count)
board.cache_hierarchy.icache.prefetcher.fdipInsertions            0                       # Number of notifications from an insertion in the FTQ (Count)
board.cache_hierarchy.icache.prefetcher.pfIdentified        39622                       # number of prefetches identified. (Count)
board.cache_hierarchy.icache.prefetcher.pfInCache        29336                       # number of prefetches hit in in cache (Count)
board.cache_hierarchy.icache.prefetcher.pfInCachePrefetched            0                       # number of prefetches hit in cache but prefetched (Count)
board.cache_hierarchy.icache.prefetcher.pfPacketsCreated        39622                       # number of prefetch packets created (Count)
board.cache_hierarchy.icache.prefetcher.pfCandidatesAdded        10286                       # Number of perfetch candidates added to the prefetch queue (Count)
board.cache_hierarchy.icache.prefetcher.translationFail            0                       # Number of prefetches that failed translation (Count)
board.cache_hierarchy.icache.prefetcher.translationSuccess        39622                       # Number of prefetches that succeeded translation (Count)
board.cache_hierarchy.icache.prefetcher.power_state.pwrStateResidencyTicks::UNDEFINED    214297488                       # Cumulative time (in ticks) in various power states (Tick)
board.cache_hierarchy.icache.tags.tagsInUse   511.995311                       # Average ticks per tags in use ((Tick/Count))
board.cache_hierarchy.icache.tags.totalRefs        56024                       # Total number of references to valid blocks. (Count)
board.cache_hierarchy.icache.tags.sampledRefs        10265                       # Sample count of references to valid blocks. (Count)
board.cache_hierarchy.icache.tags.avgRefs     5.457769                       # Average number of references to valid blocks. ((Count/Count))
board.cache_hierarchy.icache.tags.warmupTick            0                       # The tick when the warmup percentage was hit. (Tick)
board.cache_hierarchy.icache.tags.occupancies::processor.cores.core.inst    11.858482                       # Average occupied blocks per tick, per requestor ((Count/Tick))
board.cache_hierarchy.icache.tags.occupancies::cache_hierarchy.icache.prefetcher   500.136829                       # Average occupied blocks per tick, per requestor ((Count/Tick))
board.cache_hierarchy.icache.tags.avgOccs::processor.cores.core.inst     0.023161                       # Average percentage of cache occupancy ((Ratio/Tick))
board.cache_hierarchy.icache.tags.avgOccs::cache_hierarchy.icache.prefetcher     0.976830                       # Average percentage of cache occupancy ((Ratio/Tick))
board.cache_hierarchy.icache.tags.avgOccs::total     0.999991                       # Average percentage of cache occupancy ((Ratio/Tick))
board.cache_hierarchy.icache.tags.occupanciesTaskId::1022          493                       # Occupied blocks per task id (Count)
board.cache_hierarchy.icache.tags.occupanciesTaskId::1024           19                       # Occupied blocks per task id (Count)
board.cache_hierarchy.icache.tags.ageTaskId_1022::0          459                       # Occupied blocks per task id, per block age (Count)
board.cache_hierarchy.icache.tags.ageTaskId_1022::1           34                       # Occupied blocks per task id, per block age (Count)
board.cache_hierarchy.icache.tags.ageTaskId_1024::0           19                       # Occupied blocks per task id, per block age (Count)
board.cache_hierarchy.icache.tags.ratioOccsTaskId::1022     0.962891                       # Ratio of occupied blocks and all blocks, per task id (Ratio)
board.cache_hierarchy.icache.tags.ratioOccsTaskId::1024     0.037109                       # Ratio of occupied blocks and all blocks, per task id (Ratio)
board.cache_hierarchy.icache.tags.tagAccesses       393987                       # Number of tag accesses (Count)
board.cache_hierarchy.icache.tags.dataAccesses       393987                       # Number of data accesses (Count)
board.cache_hierarchy.icache.tags.power_state.pwrStateResidencyTicks::UNDEFINED    214297488                       # Cumulative time (in ticks) in various power states (Tick)
board.cache_hierarchy.membus.transDist::ReadResp        10267                       # Transaction distribution (Count)
board.cache_hierarchy.membus.transDist::WritebackClean        10265                       # Transaction distribution (Count)
board.cache_hierarchy.membus.transDist::ReadExReq            2                       # Transaction distribution (Count)
board.cache_hierarchy.membus.transDist::ReadExResp            2                       # Transaction distribution (Count)
board.cache_hierarchy.membus.transDist::ReadSharedReq        10279                       # Transaction distribution (Count)
board.cache_hierarchy.membus.pktCount_board.cache_hierarchy.icache.mem_side_port::board.memory.mem_ctrl.port        30811                       # Packet count per connected requestor and responder (Count)
board.cache_hierarchy.membus.pktCount_board.cache_hierarchy.icache.mem_side_port::total        30811                       # Packet count per connected requestor and responder (Count)
board.cache_hierarchy.membus.pktCount_board.cache_hierarchy.dcache.mem_side_port::board.memory.mem_ctrl.port            4                       # Packet count per connected requestor and responder (Count)
board.cache_hierarchy.membus.pktCount_board.cache_hierarchy.dcache.mem_side_port::total            4                       # Packet count per connected requestor and responder (Count)
board.cache_hierarchy.membus.pktCount::total        30815                       # Packet count per connected requestor and responder (Count)
board.cache_hierarchy.membus.pktSize_board.cache_hierarchy.icache.mem_side_port::board.memory.mem_ctrl.port      1314048                       # Cumulative packet size per connected requestor and responder (Byte)
board.cache_hierarchy.membus.pktSize_board.cache_hierarchy.icache.mem_side_port::total      1314048                       # Cumulative packet size per connected requestor and responder (Byte)
board.cache_hierarchy.membus.pktSize_board.cache_hierarchy.dcache.mem_side_port::board.memory.mem_ctrl.port          128                       # Cumulative packet size per connected requestor and responder (Byte)
board.cache_hierarchy.membus.pktSize_board.cache_hierarchy.dcache.mem_side_port::total          128                       # Cumulative packet size per connected requestor and responder (Byte)
board.cache_hierarchy.membus.pktSize::total      1314176                       # Cumulative packet size per connected requestor and responder (Byte)
board.cache_hierarchy.membus.snoops                 0                       # Total snoops (Count)
board.cache_hierarchy.membus.snoopTraffic            0                       # Total snoop traffic (Byte)
board.cache_hierarchy.membus.snoopFanout::samples        10281                       # Request fanout histogram (Count)
board.cache_hierarchy.membus.snoopFanout::mean     0.005836                       # Request fanout histogram (Count)
board.cache_hierarchy.membus.snoopFanout::stdev     0.076174                       # Request fanout histogram (Count)
board.cache_hierarchy.membus.snoopFanout::underflows            0      0.00%      0.00% # Request fanout histogram (Count)
board.cache_hierarchy.membus.snoopFanout::0        10221     99.42%     99.42% # Request fanout histogram (Count)
board.cache_hierarchy.membus.snoopFanout::1           60      0.58%    100.00% # Request fanout histogram (Count)
board.cache_hierarchy.membus.snoopFanout::2            0      0.00%    100.00% # Request fanout histogram (Count)
board.cache_hierarchy.membus.snoopFanout::3            0      0.00%    100.00% # Request fanout histogram (Count)
board.cache_hierarchy.membus.snoopFanout::overflows            0      0.00%    100.00% # Request fanout histogram (Count)
board.cache_hierarchy.membus.snoopFanout::min_value            0                       # Request fanout histogram (Count)
board.cache_hierarchy.membus.snoopFanout::max_value            1                       # Request fanout histogram (Count)
board.cache_hierarchy.membus.snoopFanout::total        10281                       # Request fanout histogram (Count)
board.cache_hierarchy.membus.badaddr_responder.power_state.pwrStateResidencyTicks::UNDEFINED    214297488                       # Cumulative time (in ticks) in various power states (Tick)
board.cache_hierarchy.membus.power_state.pwrStateResidencyTicks::UNDEFINED    214297488                       # Cumulative time (in ticks) in various power states (Tick)
board.cache_hierarchy.membus.reqLayer0.occupancy     10473198                       # Layer occupancy (ticks) (Tick)
board.cache_hierarchy.membus.reqLayer0.utilization          0.1                       # Layer utilization (Ratio)
board.cache_hierarchy.membus.respLayer1.occupancy      8668606                       # Layer occupancy (ticks) (Tick)
board.cache_hierarchy.membus.respLayer1.utilization          0.0                       # Layer utilization (Ratio)
board.cache_hierarchy.membus.respLayer2.occupancy         1560                       # Layer occupancy (ticks) (Tick)
board.cache_hierarchy.membus.respLayer2.utilization          0.0                       # Layer utilization (Ratio)
board.cache_hierarchy.membus.snoop_filter.totRequests        20546                       # Total number of requests made to the snoop filter. (Count)
board.cache_hierarchy.membus.snoop_filter.hitSingleRequests        10265                       # Number of requests hitting in the snoop filter with a single holder of the requested data. (Count)
board.cache_hierarchy.membus.snoop_filter.hitMultiRequests           60                       # Number of requests hitting in the snoop filter with multiple (>1) holders of the requested data. (Count)
board.cache_hierarchy.membus.snoop_filter.totSnoops            0                       # Total number of snoops made to the snoop filter. (Count)
board.cache_hierarchy.membus.snoop_filter.hitSingleSnoops            0                       # Number of snoops hitting in the snoop filter with a single holder of the requested data. (Count)
board.cache_hierarchy.membus.snoop_filter.hitMultiSnoops            0                       # Number of snoops hitting in the snoop filter with multiple (>1) holders of the requested data. (Count)
board.cache_hierarchy.mmubus.snoops                 0                       # Total snoops (Count)
board.cache_hierarchy.mmubus.snoopTraffic            0                       # Total snoop traffic (Byte)
board.cache_hierarchy.mmubus.snoopFanout::samples            0                       # Request fanout histogram (Count)
board.cache_hierarchy.mmubus.snoopFanout::mean          nan                       # Request fanout histogram (Count)
board.cache_hierarchy.mmubus.snoopFanout::stdev          nan                       # Request fanout histogram (Count)
board.cache_hierarchy.mmubus.snoopFanout::underflows            0                       # Request fanout histogram (Count)
board.cache_hierarchy.mmubus.snoopFanout::0            0                       # Request fanout histogram (Count)
board.cache_hierarchy.mmubus.snoopFanout::overflows            0                       # Request fanout histogram (Count)
board.cache_hierarchy.mmubus.snoopFanout::min_value            0                       # Request fanout histogram (Count)
board.cache_hierarchy.mmubus.snoopFanout::max_value            0                       # Request fanout histogram (Count)
board.cache_hierarchy.mmubus.snoopFanout::total            0                       # Request fanout histogram (Count)
board.cache_hierarchy.mmubus.power_state.pwrStateResidencyTicks::UNDEFINED    214297488                       # Cumulative time (in ticks) in various power states (Tick)
board.cache_hierarchy.mmubus.snoop_filter.totRequests            0                       # Total number of requests made to the snoop filter. (Count)
board.cache_hierarchy.mmubus.snoop_filter.hitSingleRequests            0                       # Number of requests hitting in the snoop filter with a single holder of the requested data. (Count)
board.cache_hierarchy.mmubus.snoop_filter.hitMultiRequests            0                       # Number of requests hitting in the snoop filter with multiple (>1) holders of the requested data. (Count)
board.cache_hierarchy.mmubus.snoop_filter.totSnoops            0                       # Total number of snoops made to the snoop filter. (Count)
board.cache_hierarchy.mmubus.snoop_filter.hitSingleSnoops            0                       # Number of snoops hitting in the snoop filter with a single holder of the requested data. (Count)
board.cache_hierarchy.mmubus.snoop_filter.hitMultiSnoops            0                       # Number of snoops hitting in the snoop filter with multiple (>1) holders of the requested data. (Count)
board.cache_hierarchy.mmucache.blockedCycles::no_mshrs            0                       # number of cycles access was blocked (Cycle)
board.cache_hierarchy.mmucache.blockedCycles::no_targets            0                       # number of cycles access was blocked (Cycle)
board.cache_hierarchy.mmucache.blockedCauses::no_mshrs            0                       # number of times access was blocked (Count)
board.cache_hierarchy.mmucache.blockedCauses::no_targets            0                       # number of times access was blocked (Count)
board.cache_hierarchy.mmucache.avgBlocked::no_mshrs          nan                       # average number of cycles each access was blocked ((Cycle/Count))
board.cache_hierarchy.mmucache.avgBlocked::no_targets          nan                       # average number of cycles each access was blocked ((Cycle/Count))
board.cache_hierarchy.mmucache.replacements            0                       # number of replacements (Count)
board.cache_hierarchy.mmucache.power_state.pwrStateResidencyTicks::UNDEFINED    214297488                       # Cumulative time (in ticks) in various power states (Tick)
board.cache_hierarchy.mmucache.tags.tagsInUse            0                       # Average ticks per tags in use ((Tick/Count))
board.cache_hierarchy.mmucache.tags.totalRefs            0                       # Total number of references to valid blocks. (Count)
board.cache_hierarchy.mmucache.tags.sampledRefs            0                       # Sample count of references to valid blocks. (Count)
board.cache_hierarchy.mmucache.tags.avgRefs          nan                       # Average number of references to valid blocks. ((Count/Count))
board.cache_hierarchy.mmucache.tags.warmupTick            0                       # The tick when the warmup percentage was hit. (Tick)
board.cache_hierarchy.mmucache.tags.tagAccesses            0                       # Number of tag accesses (Count)
board.cache_hierarchy.mmucache.tags.dataAccesses            0                       # Number of data accesses (Count)
board.cache_hierarchy.mmucache.tags.power_state.pwrStateResidencyTicks::UNDEFINED    214297488                       # Cumulative time (in ticks) in various power states (Tick)
board.clk_domain.clock                            333                       # Clock period in ticks (Tick)
board.clk_domain.voltage_domain.voltage             1                       # Voltage in Volts (Volt)
board.memory.mem_ctrl.avgPriority_writebacks::samples     10205.00                       # Average QoS priority value for accepted requests (Count)
board.memory.mem_ctrl.avgPriority_processor.cores.core.inst::samples       230.00                       # Average QoS priority value for accepted requests (Count)
board.memory.mem_ctrl.avgPriority_processor.cores.core.data::samples         2.00                       # Average QoS priority value for accepted requests (Count)
board.memory.mem_ctrl.avgPriority_cache_hierarchy.icache.prefetcher::samples     10048.00                       # Average QoS priority value for accepted requests (Count)
board.memory.mem_ctrl.priorityMinLatency 0.000000018750                       # per QoS priority minimum request to response latency (Second)
board.memory.mem_ctrl.priorityMaxLatency 0.000004216022                       # per QoS priority maximum request to response latency (Second)
board.memory.mem_ctrl.numReadWriteTurnArounds          638                       # Number of turnarounds from READ to WRITE (Count)
board.memory.mem_ctrl.numWriteReadTurnArounds          637                       # Number of turnarounds from WRITE to READ (Count)
board.memory.mem_ctrl.numStayReadState          25243                       # Number of times bus staying in READ state (Count)
board.memory.mem_ctrl.numStayWriteState          9590                       # Number of times bus staying in WRITE state (Count)
board.memory.mem_ctrl.readReqs                  10281                       # Number of read requests accepted (Count)
board.memory.mem_ctrl.writeReqs                 10205                       # Number of write requests accepted (Count)
board.memory.mem_ctrl.readBursts                10281                       # Number of controller read bursts, including those serviced by the write queue (Count)
board.memory.mem_ctrl.writeBursts               10205                       # Number of controller write bursts, including those merged in the write queue (Count)
board.memory.mem_ctrl.servicedByWrQ                 1                       # Number of controller read bursts serviced by the write queue (Count)
board.memory.mem_ctrl.mergedWrBursts                0                       # Number of controller write bursts merged with an existing one (Count)
board.memory.mem_ctrl.neitherReadNorWriteReqs            0                       # Number of requests that are neither read nor write (Count)
board.memory.mem_ctrl.avgRdQLen                  3.81                       # Average read queue length when enqueuing ((Count/Tick))
board.memory.mem_ctrl.avgWrQLen                 27.02                       # Average write queue length when enqueuing ((Count/Tick))
board.memory.mem_ctrl.numRdRetry                    0                       # Number of times read queue was full causing retry (Count)
board.memory.mem_ctrl.numWrRetry                    0                       # Number of times write queue was full causing retry (Count)
board.memory.mem_ctrl.readPktSize::0                0                       # Read request sizes (log2) (Count)
board.memory.mem_ctrl.readPktSize::1                0                       # Read request sizes (log2) (Count)
board.memory.mem_ctrl.readPktSize::2                0                       # Read request sizes (log2) (Count)
board.memory.mem_ctrl.readPktSize::3                0                       # Read request sizes (log2) (Count)
board.memory.mem_ctrl.readPktSize::4                0                       # Read request sizes (log2) (Count)
board.memory.mem_ctrl.readPktSize::5                0                       # Read request sizes (log2) (Count)
board.memory.mem_ctrl.readPktSize::6            10281                       # Read request sizes (log2) (Count)
board.memory.mem_ctrl.writePktSize::0               0                       # Write request sizes (log2) (Count)
board.memory.mem_ctrl.writePktSize::1               0                       # Write request sizes (log2) (Count)
board.memory.mem_ctrl.writePktSize::2               0                       # Write request sizes (log2) (Count)
board.memory.mem_ctrl.writePktSize::3               0                       # Write request sizes (log2) (Count)
board.memory.mem_ctrl.writePktSize::4               0                       # Write request sizes (log2) (Count)
board.memory.mem_ctrl.writePktSize::5               0                       # Write request sizes (log2) (Count)
board.memory.mem_ctrl.writePktSize::6           10205                       # Write request sizes (log2) (Count)
board.memory.mem_ctrl.rdQLenPdf::0               2093                       # What read queue length does an incoming req see (Count)
board.memory.mem_ctrl.rdQLenPdf::1               2434                       # What read queue length does an incoming req see (Count)
board.memory.mem_ctrl.rdQLenPdf::2               2670                       # What read queue length does an incoming req see (Count)
board.memory.mem_ctrl.rdQLenPdf::3               2607                       # What read queue length does an incoming req see (Count)
board.memory.mem_ctrl.rdQLenPdf::4                143                       # What read queue length does an incoming req see (Count)
board.memory.mem_ctrl.rdQLenPdf::5                107                       # What read queue length does an incoming req see (Count)
board.memory.mem_ctrl.rdQLenPdf::6                 60                       # What read queue length does an incoming req see (Count)
board.memory.mem_ctrl.rdQLenPdf::7                 40                       # What read queue length does an incoming req see (Count)
board.memory.mem_ctrl.rdQLenPdf::8                 19                       # What read queue length does an incoming req see (Count)
board.memory.mem_ctrl.rdQLenPdf::9                 38                       # What read queue length does an incoming req see (Count)
board.memory.mem_ctrl.rdQLenPdf::10                28                       # What read queue length does an incoming req see (Count)
board.memory.mem_ctrl.rdQLenPdf::11                17                       # What read queue length does an incoming req see (Count)
board.memory.mem_ctrl.rdQLenPdf::12                16                       # What read queue length does an incoming req see (Count)
board.memory.mem_ctrl.rdQLenPdf::13                 8                       # What read queue length does an incoming req see (Count)
board.memory.mem_ctrl.rdQLenPdf::14                 0                       # What read queue length does an incoming req see (Count)
board.memory.mem_ctrl.rdQLenPdf::15                 0                       # What read queue length does an incoming req see (Count)
board.memory.mem_ctrl.rdQLenPdf::16                 0                       # What read queue length does an incoming req see (Count)
board.memory.mem_ctrl.rdQLenPdf::17                 0                       # What read queue length does an incoming req see (Count)
board.memory.mem_ctrl.rdQLenPdf::18                 0                       # What read queue length does an incoming req see (Count)
board.memory.mem_ctrl.rdQLenPdf::19                 0                       # What read queue length does an incoming req see (Count)
board.memory.mem_ctrl.rdQLenPdf::20                 0                       # What read queue length does an incoming req see (Count)
board.memory.mem_ctrl.rdQLenPdf::21                 0                       # What read queue length does an incoming req see (Count)
board.memory.mem_ctrl.rdQLenPdf::22                 0                       # What read queue length does an incoming req see (Count)
board.memory.mem_ctrl.rdQLenPdf::23                 0                       # What read queue length does an incoming req see (Count)
board.memory.mem_ctrl.rdQLenPdf::24                 0                       # What read queue length does an incoming req see (Count)
board.memory.mem_ctrl.rdQLenPdf::25                 0                       # What read queue length does an incoming req see (Count)
board.memory.mem_ctrl.rdQLenPdf::26                 0                       # What read queue length does an incoming req see (Count)
board.memory.mem_ctrl.rdQLenPdf::27                 0                       # What read queue length does an incoming req see (Count)
board.memory.mem_ctrl.rdQLenPdf::28                 0                       # What read queue length does an incoming req see (Count)
board.memory.mem_ctrl.rdQLenPdf::29                 0                       # What read queue length does an incoming req see (Count)
board.memory.mem_ctrl.rdQLenPdf::30                 0                       # What read queue length does an incoming req see (Count)
board.memory.mem_ctrl.rdQLenPdf::31                 0                       # What read queue length does an incoming req see (Count)
board.memory.mem_ctrl.wrQLenPdf::0                  0                       # What write queue length does an incoming req see (Count)
board.memory.mem_ctrl.wrQLenPdf::1                  0                       # What write queue length does an incoming req see (Count)
board.memory.mem_ctrl.wrQLenPdf::2                  0                       # What write queue length does an incoming req see (Count)
board.memory.mem_ctrl.wrQLenPdf::3                  0                       # What write queue length does an incoming req see (Count)
board.memory.mem_ctrl.wrQLenPdf::4                  0                       # What write queue length does an incoming req see (Count)
board.memory.mem_ctrl.wrQLenPdf::5                  0                       # What write queue length does an incoming req see (Count)
board.memory.mem_ctrl.wrQLenPdf::6                  0                       # What write queue length does an incoming req see (Count)
board.memory.mem_ctrl.wrQLenPdf::7                  0                       # What write queue length does an incoming req see (Count)
board.memory.mem_ctrl.wrQLenPdf::8                  0                       # What write queue length does an incoming req see (Count)
board.memory.mem_ctrl.wrQLenPdf::9                  0                       # What write queue length does an incoming req see (Count)
board.memory.mem_ctrl.wrQLenPdf::10                 0                       # What write queue length does an incoming req see (Count)
board.memory.mem_ctrl.wrQLenPdf::11                 0                       # What write queue length does an incoming req see (Count)
board.memory.mem_ctrl.wrQLenPdf::12                 0                       # What write queue length does an incoming req see (Count)
board.memory.mem_ctrl.wrQLenPdf::13                 0                       # What write queue length does an incoming req see (Count)
board.memory.mem_ctrl.wrQLenPdf::14                 0                       # What write queue length does an incoming req see (Count)
board.memory.mem_ctrl.wrQLenPdf::15                 0                       # What write queue length does an incoming req see (Count)
board.memory.mem_ctrl.wrQLenPdf::16                 0                       # What write queue length does an incoming req see (Count)
board.memory.mem_ctrl.wrQLenPdf::17                 1                       # What write queue length does an incoming req see (Count)
board.memory.mem_ctrl.wrQLenPdf::18                 5                       # What write queue length does an incoming req see (Count)
board.memory.mem_ctrl.wrQLenPdf::19                21                       # What write queue length does an incoming req see (Count)
board.memory.mem_ctrl.wrQLenPdf::20               582                       # What write queue length does an incoming req see (Count)
board.memory.mem_ctrl.wrQLenPdf::21               604                       # What write queue length does an incoming req see (Count)
board.memory.mem_ctrl.wrQLenPdf::22               982                       # What write queue length does an incoming req see (Count)
board.memory.mem_ctrl.wrQLenPdf::23               722                       # What write queue length does an incoming req see (Count)
board.memory.mem_ctrl.wrQLenPdf::24               733                       # What write queue length does an incoming req see (Count)
board.memory.mem_ctrl.wrQLenPdf::25               770                       # What write queue length does an incoming req see (Count)
board.memory.mem_ctrl.wrQLenPdf::26              1132                       # What write queue length does an incoming req see (Count)
board.memory.mem_ctrl.wrQLenPdf::27               916                       # What write queue length does an incoming req see (Count)
board.memory.mem_ctrl.wrQLenPdf::28               789                       # What write queue length does an incoming req see (Count)
board.memory.mem_ctrl.wrQLenPdf::29               811                       # What write queue length does an incoming req see (Count)
board.memory.mem_ctrl.wrQLenPdf::30               671                       # What write queue length does an incoming req see (Count)
board.memory.mem_ctrl.wrQLenPdf::31               671                       # What write queue length does an incoming req see (Count)
board.memory.mem_ctrl.wrQLenPdf::32               672                       # What write queue length does an incoming req see (Count)
board.memory.mem_ctrl.wrQLenPdf::33                35                       # What write queue length does an incoming req see (Count)
board.memory.mem_ctrl.wrQLenPdf::34                25                       # What write queue length does an incoming req see (Count)
board.memory.mem_ctrl.wrQLenPdf::35                14                       # What write queue length does an incoming req see (Count)
board.memory.mem_ctrl.wrQLenPdf::36                14                       # What write queue length does an incoming req see (Count)
board.memory.mem_ctrl.wrQLenPdf::37                16                       # What write queue length does an incoming req see (Count)
board.memory.mem_ctrl.wrQLenPdf::38                14                       # What write queue length does an incoming req see (Count)
board.memory.mem_ctrl.wrQLenPdf::39                 5                       # What write queue length does an incoming req see (Count)
board.memory.mem_ctrl.wrQLenPdf::40                 0                       # What write queue length does an incoming req see (Count)
board.memory.mem_ctrl.wrQLenPdf::41                 0                       # What write queue length does an incoming req see (Count)
board.memory.mem_ctrl.wrQLenPdf::42                 0                       # What write queue length does an incoming req see (Count)
board.memory.mem_ctrl.wrQLenPdf::43                 0                       # What write queue length does an incoming req see (Count)
board.memory.mem_ctrl.wrQLenPdf::44                 0                       # What write queue length does an incoming req see (Count)
board.memory.mem_ctrl.wrQLenPdf::45                 0                       # What write queue length does an incoming req see (Count)
board.memory.mem_ctrl.wrQLenPdf::46                 0                       # What write queue length does an incoming req see (Count)
board.memory.mem_ctrl.wrQLenPdf::47                 0                       # What write queue length does an incoming req see (Count)
board.memory.mem_ctrl.wrQLenPdf::48                 0                       # What write queue length does an incoming req see (Count)
board.memory.mem_ctrl.wrQLenPdf::49                 0                       # What write queue length does an incoming req see (Count)
board.memory.mem_ctrl.wrQLenPdf::50                 0                       # What write queue length does an incoming req see (Count)
board.memory.mem_ctrl.wrQLenPdf::51                 0                       # What write queue length does an incoming req see (Count)
board.memory.mem_ctrl.wrQLenPdf::52                 0                       # What write queue length does an incoming req see (Count)
board.memory.mem_ctrl.wrQLenPdf::53                 0                       # What write queue length does an incoming req see (Count)
board.memory.mem_ctrl.wrQLenPdf::54                 0                       # What write queue length does an incoming req see (Count)
board.memory.mem_ctrl.wrQLenPdf::55                 0                       # What write queue length does an incoming req see (Count)
board.memory.mem_ctrl.wrQLenPdf::56                 0                       # What write queue length does an incoming req see (Count)
board.memory.mem_ctrl.wrQLenPdf::57                 0                       # What write queue length does an incoming req see (Count)
board.memory.mem_ctrl.wrQLenPdf::58                 0                       # What write queue length does an incoming req see (Count)
board.memory.mem_ctrl.wrQLenPdf::59                 0                       # What write queue length does an incoming req see (Count)
board.memory.mem_ctrl.wrQLenPdf::60                 0                       # What write queue length does an incoming req see (Count)
board.memory.mem_ctrl.wrQLenPdf::61                 0                       # What write queue length does an incoming req see (Count)
board.memory.mem_ctrl.wrQLenPdf::62                 0                       # What write queue length does an incoming req see (Count)
board.memory.mem_ctrl.wrQLenPdf::63                 0                       # What write queue length does an incoming req see (Count)
board.memory.mem_ctrl.rdPerTurnAround::samples          637                       # Reads before turning the bus around for writes (Count)
board.memory.mem_ctrl.rdPerTurnAround::mean    16.100471                       # Reads before turning the bus around for writes (Count)
board.memory.mem_ctrl.rdPerTurnAround::gmean    15.970505                       # Reads before turning the bus around for writes (Count)
board.memory.mem_ctrl.rdPerTurnAround::stdev     1.950476                       # Reads before turning the bus around for writes (Count)
board.memory.mem_ctrl.rdPerTurnAround::4-5            2      0.31%      0.31% # Reads before turning the bus around for writes (Count)
board.memory.mem_ctrl.rdPerTurnAround::6-7            2      0.31%      0.63% # Reads before turning the bus around for writes (Count)
board.memory.mem_ctrl.rdPerTurnAround::8-9            1      0.16%      0.78% # Reads before turning the bus around for writes (Count)
board.memory.mem_ctrl.rdPerTurnAround::10-11            8      1.26%      2.04% # Reads before turning the bus around for writes (Count)
board.memory.mem_ctrl.rdPerTurnAround::12-13           11      1.73%      3.77% # Reads before turning the bus around for writes (Count)
board.memory.mem_ctrl.rdPerTurnAround::14-15           27      4.24%      8.01% # Reads before turning the bus around for writes (Count)
board.memory.mem_ctrl.rdPerTurnAround::16-17          544     85.40%     93.41% # Reads before turning the bus around for writes (Count)
board.memory.mem_ctrl.rdPerTurnAround::18-19           18      2.83%     96.23% # Reads before turning the bus around for writes (Count)
board.memory.mem_ctrl.rdPerTurnAround::20-21           17      2.67%     98.90% # Reads before turning the bus around for writes (Count)
board.memory.mem_ctrl.rdPerTurnAround::22-23            2      0.31%     99.22% # Reads before turning the bus around for writes (Count)
board.memory.mem_ctrl.rdPerTurnAround::26-27            2      0.31%     99.53% # Reads before turning the bus around for writes (Count)
board.memory.mem_ctrl.rdPerTurnAround::28-29            1      0.16%     99.69% # Reads before turning the bus around for writes (Count)
board.memory.mem_ctrl.rdPerTurnAround::30-31            1      0.16%     99.84% # Reads before turning the bus around for writes (Count)
board.memory.mem_ctrl.rdPerTurnAround::34-35            1      0.16%    100.00% # Reads before turning the bus around for writes (Count)
board.memory.mem_ctrl.rdPerTurnAround::total          637                       # Reads before turning the bus around for writes (Count)
board.memory.mem_ctrl.wrPerTurnAround::samples          638                       # Writes before turning the bus around for reads (Count)
board.memory.mem_ctrl.wrPerTurnAround::mean           16                       # Writes before turning the bus around for reads (Count)
board.memory.mem_ctrl.wrPerTurnAround::gmean    16.000000                       # Writes before turning the bus around for reads (Count)
board.memory.mem_ctrl.wrPerTurnAround::16          638    100.00%    100.00% # Writes before turning the bus around for reads (Count)
board.memory.mem_ctrl.wrPerTurnAround::total          638                       # Writes before turning the bus around for reads (Count)
board.memory.mem_ctrl.bytesReadWrQ                 64                       # Total number of bytes read from write queue (Byte)
board.memory.mem_ctrl.bytesReadSys             657984                       # Total read bytes from the system interface side (Byte)
board.memory.mem_ctrl.bytesWrittenSys          653120                       # Total written bytes from the system interface side (Byte)
board.memory.mem_ctrl.avgRdBWSys         3333886630.10043859                       # Average system read bandwidth in Byte/s ((Byte/Second))
board.memory.mem_ctrl.avgWrBWSys         3309241616.59128237                       # Average system write bandwidth in Byte/s ((Byte/Second))
board.memory.mem_ctrl.totGap                197362773                       # Total gap between requests (Tick)
board.memory.mem_ctrl.avgGap                  9634.03                       # Average gap between requests ((Tick/Count))
board.memory.mem_ctrl.requestorReadBytes::processor.cores.core.inst        14528                       # Per-requestor bytes read from memory (Byte)
board.memory.mem_ctrl.requestorReadBytes::processor.cores.core.data          128                       # Per-requestor bytes read from memory (Byte)
board.memory.mem_ctrl.requestorReadBytes::cache_hierarchy.icache.prefetcher       642816                       # Per-requestor bytes read from memory (Byte)
board.memory.mem_ctrl.requestorWriteBytes::writebacks       652928                       # Per-requestor bytes write to memory (Byte)
board.memory.mem_ctrl.requestorReadRate::processor.cores.core.inst 73610764.033926621079                       # Per-requestor bytes read from memory rate ((Byte/Second))
board.memory.mem_ctrl.requestorReadRate::processor.cores.core.data 648552.987083053915                       # Per-requestor bytes read from memory rate ((Byte/Second))
board.memory.mem_ctrl.requestorReadRate::cache_hierarchy.icache.prefetcher 3257033101.131096839905                       # Per-requestor bytes read from memory rate ((Byte/Second))
board.memory.mem_ctrl.requestorWriteRate::writebacks 3308268787.110657691956                       # Per-requestor bytes write to memory rate ((Byte/Second))
board.memory.mem_ctrl.requestorReadAccesses::processor.cores.core.inst          230                       # Per-requestor read serviced memory accesses (Count)
board.memory.mem_ctrl.requestorReadAccesses::processor.cores.core.data            2                       # Per-requestor read serviced memory accesses (Count)
board.memory.mem_ctrl.requestorReadAccesses::cache_hierarchy.icache.prefetcher        10049                       # Per-requestor read serviced memory accesses (Count)
board.memory.mem_ctrl.requestorWriteAccesses::writebacks        10205                       # Per-requestor write serviced memory accesses (Count)
board.memory.mem_ctrl.requestorReadTotalLat::processor.cores.core.inst     15758391                       # Per-requestor read total memory access latency (Tick)
board.memory.mem_ctrl.requestorReadTotalLat::processor.cores.core.data        65000                       # Per-requestor read total memory access latency (Tick)
board.memory.mem_ctrl.requestorReadTotalLat::cache_hierarchy.icache.prefetcher    547339775                       # Per-requestor read total memory access latency (Tick)
board.memory.mem_ctrl.requestorWriteTotalLat::writebacks   5305121232                       # Per-requestor write total memory access latency (Tick)
board.memory.mem_ctrl.requestorReadAvgLat::processor.cores.core.inst     68514.74                       # Per-requestor read average memory access latency ((Tick/Count))
board.memory.mem_ctrl.requestorReadAvgLat::processor.cores.core.data     32500.00                       # Per-requestor read average memory access latency ((Tick/Count))
board.memory.mem_ctrl.requestorReadAvgLat::cache_hierarchy.icache.prefetcher     54467.09                       # Per-requestor read average memory access latency ((Tick/Count))
board.memory.mem_ctrl.requestorWriteAvgLat::writebacks    519855.09                       # Per-requestor write average memory access latency ((Tick/Count))
board.memory.mem_ctrl.dram.bytesRead::processor.cores.core.inst        14464                       # Number of bytes read from this memory (Byte)
board.memory.mem_ctrl.dram.bytesRead::processor.cores.core.data          128                       # Number of bytes read from this memory (Byte)
board.memory.mem_ctrl.dram.bytesRead::cache_hierarchy.icache.prefetcher       642624                       # Number of bytes read from this memory (Byte)
board.memory.mem_ctrl.dram.bytesRead::total       657216                       # Number of bytes read from this memory (Byte)
board.memory.mem_ctrl.dram.bytesInstRead::processor.cores.core.inst        14464                       # Number of instructions bytes read from this memory (Byte)
board.memory.mem_ctrl.dram.bytesInstRead::cache_hierarchy.icache.prefetcher       642624                       # Number of instructions bytes read from this memory (Byte)
board.memory.mem_ctrl.dram.bytesInstRead::total       657088                       # Number of instructions bytes read from this memory (Byte)
board.memory.mem_ctrl.dram.numReads::processor.cores.core.inst          226                       # Number of read requests responded to by this memory (Count)
board.memory.mem_ctrl.dram.numReads::processor.cores.core.data            2                       # Number of read requests responded to by this memory (Count)
board.memory.mem_ctrl.dram.numReads::cache_hierarchy.icache.prefetcher        10041                       # Number of read requests responded to by this memory (Count)
board.memory.mem_ctrl.dram.numReads::total        10269                       # Number of read requests responded to by this memory (Count)
board.memory.mem_ctrl.dram.bwRead::processor.cores.core.inst     73286488                       # Total read bandwidth from this memory ((Byte/Second))
board.memory.mem_ctrl.dram.bwRead::processor.cores.core.data       648553                       # Total read bandwidth from this memory ((Byte/Second))
board.memory.mem_ctrl.dram.bwRead::cache_hierarchy.icache.prefetcher   3256060272                       # Total read bandwidth from this memory ((Byte/Second))
board.memory.mem_ctrl.dram.bwRead::total   3329995312                       # Total read bandwidth from this memory ((Byte/Second))
board.memory.mem_ctrl.dram.bwInstRead::processor.cores.core.inst     73286488                       # Instruction read bandwidth from this memory ((Byte/Second))
board.memory.mem_ctrl.dram.bwInstRead::cache_hierarchy.icache.prefetcher   3256060272                       # Instruction read bandwidth from this memory ((Byte/Second))
board.memory.mem_ctrl.dram.bwInstRead::total   3329346759                       # Instruction read bandwidth from this memory ((Byte/Second))
board.memory.mem_ctrl.dram.bwTotal::processor.cores.core.inst     73286488                       # Total bandwidth to/from this memory ((Byte/Second))
board.memory.mem_ctrl.dram.bwTotal::processor.cores.core.data       648553                       # Total bandwidth to/from this memory ((Byte/Second))
board.memory.mem_ctrl.dram.bwTotal::cache_hierarchy.icache.prefetcher   3256060272                       # Total bandwidth to/from this memory ((Byte/Second))
board.memory.mem_ctrl.dram.bwTotal::total   3329995312                       # Total bandwidth to/from this memory ((Byte/Second))
board.memory.mem_ctrl.dram.readBursts           10273                       # Number of DRAM read bursts (Count)
board.memory.mem_ctrl.dram.writeBursts          10202                       # Number of DRAM write bursts (Count)
board.memory.mem_ctrl.dram.perBankRdBursts::0         1170                       # Per bank write bursts (Count)
board.memory.mem_ctrl.dram.perBankRdBursts::1         1300                       # Per bank write bursts (Count)
board.memory.mem_ctrl.dram.perBankRdBursts::2         1280                       # Per bank write bursts (Count)
board.memory.mem_ctrl.dram.perBankRdBursts::3         1280                       # Per bank write bursts (Count)
board.memory.mem_ctrl.dram.perBankRdBursts::4         1380                       # Per bank write bursts (Count)
board.memory.mem_ctrl.dram.perBankRdBursts::5         1280                       # Per bank write bursts (Count)
board.memory.mem_ctrl.dram.perBankRdBursts::6         1280                       # Per bank write bursts (Count)
board.memory.mem_ctrl.dram.perBankRdBursts::7          370                       # Per bank write bursts (Count)
board.memory.mem_ctrl.dram.perBankRdBursts::8            0                       # Per bank write bursts (Count)
board.memory.mem_ctrl.dram.perBankRdBursts::9            0                       # Per bank write bursts (Count)
board.memory.mem_ctrl.dram.perBankRdBursts::10           58                       # Per bank write bursts (Count)
board.memory.mem_ctrl.dram.perBankRdBursts::11          390                       # Per bank write bursts (Count)
board.memory.mem_ctrl.dram.perBankRdBursts::12          233                       # Per bank write bursts (Count)
board.memory.mem_ctrl.dram.perBankRdBursts::13            2                       # Per bank write bursts (Count)
board.memory.mem_ctrl.dram.perBankRdBursts::14           90                       # Per bank write bursts (Count)
board.memory.mem_ctrl.dram.perBankRdBursts::15          160                       # Per bank write bursts (Count)
board.memory.mem_ctrl.dram.perBankWrBursts::0         1141                       # Per bank write bursts (Count)
board.memory.mem_ctrl.dram.perBankWrBursts::1         1315                       # Per bank write bursts (Count)
board.memory.mem_ctrl.dram.perBankWrBursts::2         1359                       # Per bank write bursts (Count)
board.memory.mem_ctrl.dram.perBankWrBursts::3         1267                       # Per bank write bursts (Count)
board.memory.mem_ctrl.dram.perBankWrBursts::4         1283                       # Per bank write bursts (Count)
[...]
board.processor.cores.core.lsq0.forwLoads        14604                       # Number of loads that had data forwarded from stores (Count)
board.processor.cores.core.lsq0.squashedLoads         4079                       # Number of loads squashed (Count)
board.processor.cores.core.lsq0.ignoredResponses          154                       # Number of memory responses ignored because the instruction is squashed (Count)
board.processor.cores.core.lsq0.memOrderViolation          953                       # Number of memory ordering violations (Count)
board.processor.cores.core.lsq0.squashedStores         1417                       # Number of stores squashed (Count)
board.processor.cores.core.lsq0.rescheduledLoads           23                       # Number of loads that were rescheduled (Count)
board.processor.cores.core.lsq0.blockedByCache            0                       # Number of times an access to memory failed due to the cache being blocked (Count)
board.processor.cores.core.lsq0.loadToUse::samples        62962                       # Distribution of cycle latency between the first time a load is issued and its completion (Unspecified)
board.processor.cores.core.lsq0.loadToUse::mean     2.169976                       # Distribution of cycle latency between the first time a load is issued and its completion (Unspecified)
board.processor.cores.core.lsq0.loadToUse::stdev     2.465399                       # Distribution of cycle latency between the first time a load is issued and its completion (Unspecified)
board.processor.cores.core.lsq0.loadToUse::0-9        62955     99.99%     99.99% # Distribution of cycle latency between the first time a load is issued and its completion (Unspecified)
board.processor.cores.core.lsq0.loadToUse::10-19            1      0.00%     99.99% # Distribution of cycle latency between the first time a load is issued and its completion (Unspecified)
board.processor.cores.core.lsq0.loadToUse::140-149            1      0.00%     99.99% # Distribution of cycle latency between the first time a load is issued and its completion (Unspecified)
board.processor.cores.core.lsq0.loadToUse::150-159            1      0.00%     99.99% # Distribution of cycle latency between the first time a load is issued and its completion (Unspecified)
board.processor.cores.core.lsq0.loadToUse::200-209            1      0.00%    100.00% # Distribution of cycle latency between the first time a load is issued and its completion (Unspecified)
board.processor.cores.core.lsq0.loadToUse::210-219            1      0.00%    100.00% # Distribution of cycle latency between the first time a load is issued and its completion (Unspecified)
board.processor.cores.core.lsq0.loadToUse::250-259            1      0.00%    100.00% # Distribution of cycle latency between the first time a load is issued and its completion (Unspecified)
board.processor.cores.core.lsq0.loadToUse::overflows            1      0.00%    100.00% # Distribution of cycle latency between the first time a load is issued and its completion (Unspecified)
board.processor.cores.core.lsq0.loadToUse::min_value            2                       # Distribution of cycle latency between the first time a load is issued and its completion (Unspecified)
board.processor.cores.core.lsq0.loadToUse::max_value          430                       # Distribution of cycle latency between the first time a load is issued and its completion (Unspecified)
board.processor.cores.core.lsq0.loadToUse::total        62962                       # Distribution of cycle latency between the first time a load is issued and its completion (Unspecified)
board.processor.cores.core.mmu.alignFaults            0                       # Number of MMU faults due to alignment restrictions (Count)
board.processor.cores.core.mmu.prefetchFaults            0                       # Number of MMU faults due to prefetch (Count)
board.processor.cores.core.mmu.domainFaults            0                       # Number of MMU faults due to domain restrictions (Count)
board.processor.cores.core.mmu.permsFaults            0                       # Number of MMU faults due to permissions restrictions (Count)
board.processor.cores.core.mmu.dtb.readHits            0                       # Read hits (Count)
board.processor.cores.core.mmu.dtb.readMisses            0                       # Read misses (Count)
board.processor.cores.core.mmu.dtb.writeHits            0                       # Write hits (Count)
board.processor.cores.core.mmu.dtb.writeMisses            0                       # Write misses (Count)
board.processor.cores.core.mmu.dtb.inserts            0                       # Number of times an entry is inserted into the TLB (Count)
board.processor.cores.core.mmu.dtb.flushTlb            0                       # Number of times a TLB invalidation was requested (Count)
board.processor.cores.core.mmu.dtb.flushedEntries            0                       # Number of entries that have been flushed from TLB (Count)
board.processor.cores.core.mmu.dtb.readAccesses            0                       # Read accesses (Count)
board.processor.cores.core.mmu.dtb.writeAccesses            0                       # Write accesses (Count)
board.processor.cores.core.mmu.dtb.hits             0                       # Total TLB (inst and data) hits (Count)
board.processor.cores.core.mmu.dtb.misses            0                       # Total TLB (inst and data) misses (Count)
board.processor.cores.core.mmu.dtb.accesses            0                       # Total TLB (inst and data) accesses (Count)
board.processor.cores.core.mmu.dtb_walker.walks            0                       # Table walker walks requested (Count)
board.processor.cores.core.mmu.dtb_walker.requestOrigin_Requested::Data            0                       # Table walker requests started/completed, data/inst (Count)
board.processor.cores.core.mmu.dtb_walker.requestOrigin_Requested::Inst            0                       # Table walker requests started/completed, data/inst (Count)
board.processor.cores.core.mmu.dtb_walker.requestOrigin_Requested::total            0                       # Table walker requests started/completed, data/inst (Count)
board.processor.cores.core.mmu.dtb_walker.requestOrigin_Completed::Data            0                       # Table walker requests started/completed, data/inst (Count)
board.processor.cores.core.mmu.dtb_walker.requestOrigin_Completed::Inst            0                       # Table walker requests started/completed, data/inst (Count)
board.processor.cores.core.mmu.dtb_walker.requestOrigin_Completed::total            0                       # Table walker requests started/completed, data/inst (Count)
board.processor.cores.core.mmu.dtb_walker.requestOrigin::total            0                       # Table walker requests started/completed, data/inst (Count)
board.processor.cores.core.mmu.dtb_walker.power_state.pwrStateResidencyTicks::UNDEFINED    216874575                       # Cumulative time (in ticks) in various power states (Tick)
board.processor.cores.core.mmu.itb.instHits            0                       # Inst hits (Count)
board.processor.cores.core.mmu.itb.instMisses            0                       # Inst misses (Count)
board.processor.cores.core.mmu.itb.inserts            0                       # Number of times an entry is inserted into the TLB (Count)
board.processor.cores.core.mmu.itb.flushTlb            0                       # Number of times a TLB invalidation was requested (Count)
board.processor.cores.core.mmu.itb.flushedEntries            0                       # Number of entries that have been flushed from TLB (Count)
board.processor.cores.core.mmu.itb.instAccesses            0                       # Inst accesses (Count)
board.processor.cores.core.mmu.itb.hits             0                       # Total TLB (inst and data) hits (Count)
board.processor.cores.core.mmu.itb.misses            0                       # Total TLB (inst and data) misses (Count)
board.processor.cores.core.mmu.itb.accesses            0                       # Total TLB (inst and data) accesses (Count)
board.processor.cores.core.mmu.itb_walker.walks            0                       # Table walker walks requested (Count)
board.processor.cores.core.mmu.itb_walker.requestOrigin_Requested::Data            0                       # Table walker requests started/completed, data/inst (Count)
board.processor.cores.core.mmu.itb_walker.requestOrigin_Requested::Inst            0                       # Table walker requests started/completed, data/inst (Count)
board.processor.cores.core.mmu.itb_walker.requestOrigin_Requested::total            0                       # Table walker requests started/completed, data/inst (Count)
board.processor.cores.core.mmu.itb_walker.requestOrigin_Completed::Data            0                       # Table walker requests started/completed, data/inst (Count)
board.processor.cores.core.mmu.itb_walker.requestOrigin_Completed::Inst            0                       # Table walker requests started/completed, data/inst (Count)
board.processor.cores.core.mmu.itb_walker.requestOrigin_Completed::total            0                       # Table walker requests started/completed, data/inst (Count)
board.processor.cores.core.mmu.itb_walker.requestOrigin::total            0                       # Table walker requests started/completed, data/inst (Count)
board.processor.cores.core.mmu.itb_walker.power_state.pwrStateResidencyTicks::UNDEFINED    216874575                       # Cumulative time (in ticks) in various power states (Tick)
board.processor.cores.core.mmu.l2_shared.instHits            0                       # Inst hits (Count)
board.processor.cores.core.mmu.l2_shared.instMisses            0                       # Inst misses (Count)
board.processor.cores.core.mmu.l2_shared.inserts            0                       # Number of times an entry is inserted into the TLB (Count)
board.processor.cores.core.mmu.l2_shared.flushTlb            0                       # Number of times a TLB invalidation was requested (Count)
board.processor.cores.core.mmu.l2_shared.flushedEntries            0                       # Number of entries that have been flushed from TLB (Count)
board.processor.cores.core.mmu.l2_shared.instAccesses            0                       # Inst accesses (Count)
board.processor.cores.core.mmu.l2_shared.hits            0                       # Total TLB (inst and data) hits (Count)
board.processor.cores.core.mmu.l2_shared.misses            0                       # Total TLB (inst and data) misses (Count)
board.processor.cores.core.mmu.l2_shared.accesses            0                       # Total TLB (inst and data) accesses (Count)
board.processor.cores.core.mmu.stage2_dtb.readHits            0                       # Read hits (Count)
board.processor.cores.core.mmu.stage2_dtb.readMisses            0                       # Read misses (Count)
board.processor.cores.core.mmu.stage2_dtb.writeHits            0                       # Write hits (Count)
board.processor.cores.core.mmu.stage2_dtb.writeMisses            0                       # Write misses (Count)
board.processor.cores.core.mmu.stage2_dtb.inserts            0                       # Number of times an entry is inserted into the TLB (Count)
board.processor.cores.core.mmu.stage2_dtb.flushTlb            0                       # Number of times a TLB invalidation was requested (Count)
board.processor.cores.core.mmu.stage2_dtb.flushedEntries            0                       # Number of entries that have been flushed from TLB (Count)
board.processor.cores.core.mmu.stage2_dtb.readAccesses            0                       # Read accesses (Count)
board.processor.cores.core.mmu.stage2_dtb.writeAccesses            0                       # Write accesses (Count)
board.processor.cores.core.mmu.stage2_dtb.hits            0                       # Total TLB (inst and data) hits (Count)
board.processor.cores.core.mmu.stage2_dtb.misses            0                       # Total TLB (inst and data) misses (Count)
board.processor.cores.core.mmu.stage2_dtb.accesses            0                       # Total TLB (inst and data) accesses (Count)
board.processor.cores.core.mmu.stage2_dtb_walker.walks            0                       # Table walker walks requested (Count)
board.processor.cores.core.mmu.stage2_dtb_walker.requestOrigin_Requested::Data            0                       # Table walker requests started/completed, data/inst (Count)
board.processor.cores.core.mmu.stage2_dtb_walker.requestOrigin_Requested::Inst            0                       # Table walker requests started/completed, data/inst (Count)
board.processor.cores.core.mmu.stage2_dtb_walker.requestOrigin_Requested::total            0                       # Table walker requests started/completed, data/inst (Count)
board.processor.cores.core.mmu.stage2_dtb_walker.requestOrigin_Completed::Data            0                       # Table walker requests started/completed, data/inst (Count)
board.processor.cores.core.mmu.stage2_dtb_walker.requestOrigin_Completed::Inst            0                       # Table walker requests started/completed, data/inst (Count)
board.processor.cores.core.mmu.stage2_dtb_walker.requestOrigin_Completed::total            0                       # Table walker requests started/completed, data/inst (Count)
board.processor.cores.core.mmu.stage2_dtb_walker.requestOrigin::total            0                       # Table walker requests started/completed, data/inst (Count)
board.processor.cores.core.mmu.stage2_dtb_walker.power_state.pwrStateResidencyTicks::UNDEFINED    216874575                       # Cumulative time (in ticks) in various power states (Tick)
board.processor.cores.core.mmu.stage2_itb.instHits            0                       # Inst hits (Count)
board.processor.cores.core.mmu.stage2_itb.instMisses            0                       # Inst misses (Count)
board.processor.cores.core.mmu.stage2_itb.inserts            0                       # Number of times an entry is inserted into the TLB (Count)
board.processor.cores.core.mmu.stage2_itb.flushTlb            0                       # Number of times a TLB invalidation was requested (Count)
board.processor.cores.core.mmu.stage2_itb.flushedEntries            0                       # Number of entries that have been flushed from TLB (Count)
board.processor.cores.core.mmu.stage2_itb.instAccesses            0                       # Inst accesses (Count)
board.processor.cores.core.mmu.stage2_itb.hits            0                       # Total TLB (inst and data) hits (Count)
board.processor.cores.core.mmu.stage2_itb.misses            0                       # Total TLB (inst and data) misses (Count)
board.processor.cores.core.mmu.stage2_itb.accesses            0                       # Total TLB (inst and data) accesses (Count)
board.processor.cores.core.mmu.stage2_itb_walker.walks            0                       # Table walker walks requested (Count)
board.processor.cores.core.mmu.stage2_itb_walker.requestOrigin_Requested::Data            0                       # Table walker requests started/completed, data/inst (Count)
board.processor.cores.core.mmu.stage2_itb_walker.requestOrigin_Requested::Inst            0                       # Table walker requests started/completed, data/inst (Count)
board.processor.cores.core.mmu.stage2_itb_walker.requestOrigin_Requested::total            0                       # Table walker requests started/completed, data/inst (Count)
board.processor.cores.core.mmu.stage2_itb_walker.requestOrigin_Completed::Data            0                       # Table walker requests started/completed, data/inst (Count)
board.processor.cores.core.mmu.stage2_itb_walker.requestOrigin_Completed::Inst            0                       # Table walker requests started/completed, data/inst (Count)
board.processor.cores.core.mmu.stage2_itb_walker.requestOrigin_Completed::total            0                       # Table walker requests started/completed, data/inst (Count)
board.processor.cores.core.mmu.stage2_itb_walker.requestOrigin::total            0                       # Table walker requests started/completed, data/inst (Count)
board.processor.cores.core.mmu.stage2_itb_walker.power_state.pwrStateResidencyTicks::UNDEFINED    216874575                       # Cumulative time (in ticks) in various power states (Tick)
board.processor.cores.core.power_state.pwrStateResidencyTicks::ON    216874575                       # Cumulative time (in ticks) in various power states (Tick)
board.processor.cores.core.rename.squashCycles         2157                       # Number of cycles rename is squashing (Cycle)
board.processor.cores.core.rename.idleCycles       139572                       # Number of cycles rename is idle (Cycle)
board.processor.cores.core.rename.blockCycles          731                       # Number of cycles rename is blocking (Cycle)
board.processor.cores.core.rename.serializeStallCycles          769                       # count of cycles rename stalled for serializing inst (Cycle)
board.processor.cores.core.rename.runCycles        55853                       # Number of cycles rename is running (Cycle)
board.processor.cores.core.rename.unblockCycles           51                       # Number of cycles rename is unblocking (Cycle)
board.processor.cores.core.rename.renamedInsts       169433                       # Number of instructions processed by rename (Count)
board.processor.cores.core.rename.IQFullEvents            1                       # Number of times rename has blocked due to IQ full (Count)
board.processor.cores.core.rename.renamedOperands       191289                       # Number of destination operands rename has renamed (Count)
board.processor.cores.core.rename.lookups       265170                       # Number of register rename lookups that rename has made (Count)
board.processor.cores.core.rename.intLookups       192577                       # Number of integer rename lookups (Count)
board.processor.cores.core.rename.vecLookups          689                       # Number of vector rename lookups (Count)
board.processor.cores.core.rename.committedMaps       172359                       # Number of HB maps that are committed (Count)
board.processor.cores.core.rename.undoneMaps        18931                       # Number of HB maps that are undone due to squashing (Count)
board.processor.cores.core.rename.serializing          107                       # count of serializing insts renamed (Count)
board.processor.cores.core.rename.tempSerializing           59                       # count of temporary serializing insts renamed (Count)
board.processor.cores.core.rename.skidInsts          499                       # count of insts added to the skid buffer (Count)
board.processor.cores.core.rob.reads           359370                       # The number of ROB reads (Count)
board.processor.cores.core.rob.writes          328947                       # The number of ROB writes (Count)
board.processor.cores.core.thread_0.numInsts       151243                       # Number of Instructions committed (Count)
board.processor.cores.core.thread_0.numOps       152440                       # Number of Ops committed (Count)
board.processor.cores.core.thread_0.numMemRefs            0                       # Number of Memory References (Count)
board.processor.cores.core.workload.numSyscalls            2                       # Number of system calls (Count)
board.workload.inst.arm                             0                       # number of arm instructions executed (Count)
board.workload.inst.quiesce                         0                       # number of quiesce instructions executed (Count)

---------- End Simulation Statistics   ----------
