
---------- Begin Simulation Statistics ----------
simSeconds                                   0.000011                       # Number of seconds simulated (Second)
simTicks                                     10513809                       # Number of ticks simulated (Tick)
finalTick                                    23789520                       # Number of ticks from beginning of simulation (restored from checkpoints and never reset) (Tick)
simFreq                                  1000000000000                       # The number of ticks per simulated second ((Tick/Second))
hostSeconds                                      0.16                       # Real time elapsed on the host (Second)
hostTickRate                                 66680115                       # The number of ticks simulated per host second (ticks/s) ((Tick/Second))
hostMemory                                     205448                       # Number of bytes of host memory used (Byte)
simInsts                                        33801                       # Number of instructions simulated (Count)
simOps                                          34823                       # Number of ops (including micro ops) simulated (Count)
hostInstRate                                   214188                       # Simulator instruction rate (inst/s) ((Count/Second))
hostOpRate                                     220656                       # Simulator op (including micro ops) rate (op/s) ((Count/Second))
board.cache_hierarchy.dcache.demandHits::processor.cores.core.data         7233                       # number of demand (read+write) hits (Count)
board.cache_hierarchy.dcache.demandHits::total         7233                       # number of demand (read+write) hits (Count)
board.cache_hierarchy.dcache.overallHits::processor.cores.core.data         7233                       # number of overall hits (Count)
board.cache_hierarchy.dcache.overallHits::total         7233                       # number of overall hits (Count)
board.cache_hierarchy.dcache.demandAccesses::processor.cores.core.data         7233                       # number of demand (read+write) accesses (Count)
board.cache_hierarchy.dcache.demandAccesses::total         7233                       # number of demand (read+write) accesses (Count)
board.cache_hierarchy.dcache.overallAccesses::processor.cores.core.data         7233                       # number of overall (read+write) accesses (Count)
board.cache_hierarchy.dcache.overallAccesses::total         7233                       # number of overall (read+write) accesses (Count)
board.cache_hierarchy.dcache.blockedCycles::no_mshrs            0                       # number of cycles access was blocked (Cycle)
board.cache_hierarchy.dcache.blockedCycles::no_targets            0                       # number of cycles access was blocked (Cycle)
board.cache_hierarchy.dcache.blockedCauses::no_mshrs            0                       # number of times access was blocked (Count)
board.cache_hierarchy.dcache.blockedCauses::no_targets            0                       # number of times access was blocked (Count)
board.cache_hierarchy.dcache.avgBlocked::no_mshrs          nan                       # average number of cycles each access was blocked ((Cycle/Count))
board.cache_hierarchy.dcache.avgBlocked::no_targets          nan                       # average number of cycles each access was blocked ((Cycle/Count))
board.cache_hierarchy.dcache.replacements            0                       # number of replacements (Count)
board.cache_hierarchy.dcache.ReadReq.hits::processor.cores.core.data         7233                       # number of ReadReq hits (Count)
board.cache_hierarchy.dcache.ReadReq.hits::total         7233                       # number of ReadReq hits (Count)
board.cache_hierarchy.dcache.ReadReq.accesses::processor.cores.core.data         7233                       # number of ReadReq accesses(hits+misses) (Count)
board.cache_hierarchy.dcache.ReadReq.accesses::total         7233                       # number of ReadReq accesses(hits+misses) (Count)
board.cache_hierarchy.dcache.power_state.pwrStateResidencyTicks::UNDEFINED     23789520                       # Cumulative time (in ticks) in various power states (Tick)
board.cache_hierarchy.dcache.prefetcher.demandMshrMisses            0                       # demands not covered by prefetchs (Count)
board.cache_hierarchy.dcache.prefetcher.pfIssued            0                       # number of hwpf issued (Count)
board.cache_hierarchy.dcache.prefetcher.pfUseful            0                       # number of useful prefetch (Count)
board.cache_hierarchy.dcache.prefetcher.pfUsefulButMiss            0                       # number of hit on prefetch but cache block is not in an usable state (Count)
board.cache_hierarchy.dcache.prefetcher.accuracy          nan                       # accuracy of the prefetcher (Count)
board.cache_hierarchy.dcache.prefetcher.coverage          nan                       # coverage brought by this prefetcher (Count)
board.cache_hierarchy.dcache.prefetcher.pfHitInCache            0                       # number of prefetches hitting in cache (Count)
board.cache_hierarchy.dcache.prefetcher.pfHitInMSHR            0                       # number of prefetches hitting in a MSHR (Count)
board.cache_hierarchy.dcache.prefetcher.pfHitInWB            0                       # number of prefetches hit in the Write Buffer (Count)
board.cache_hierarchy.dcache.prefetcher.pfLate            0                       # number of late prefetches (hitting in cache, MSHR or WB) (Count)
board.cache_hierarchy.dcache.prefetcher.pfIdentified            0                       # number of prefetch candidates identified (Count)
board.cache_hierarchy.dcache.prefetcher.pfBufferHit            0                       # number of redundant prefetches already in prefetch queue (Count)
board.cache_hierarchy.dcache.prefetcher.pfInCache            0                       # number of redundant prefetches already in cache/mshr dropped (Count)
board.cache_hierarchy.dcache.prefetcher.pfRemovedDemand            0                       # number of prefetches dropped due to a demand for the same address (Count)
board.cache_hierarchy.dcache.prefetcher.pfRemovedFull            0                       # number of prefetches dropped due to prefetch queue size (Count)
board.cache_hierarchy.dcache.prefetcher.pfSpanPage            0                       # number of prefetches that crossed the page (Count)
board.cache_hierarchy.dcache.prefetcher.pfUsefulSpanPage            0                       # number of prefetches that is useful and crossed the page (Count)
board.cache_hierarchy.dcache.prefetcher.power_state.pwrStateResidencyTicks::UNDEFINED     23789520                       # Cumulative time (in ticks) in various power states (Tick)
board.cache_hierarchy.dcache.tags.tagsInUse          329                       # Average ticks per tags in use ((Tick/Count))
board.cache_hierarchy.dcache.tags.totalRefs            0                       # Total number of references to valid blocks. (Count)
board.cache_hierarchy.dcache.tags.sampledRefs            0                       # Sample count of references to valid blocks. (Count)
board.cache_hierarchy.dcache.tags.avgRefs          nan                       # Average number of references to valid blocks. ((Count/Count))
board.cache_hierarchy.dcache.tags.warmupTick            0                       # The tick when the warmup percentage was hit. (Tick)
board.cache_hierarchy.dcache.tags.occupancies::cache_hierarchy.dcache.prefetcher          158                       # Average occupied blocks per tick, per requestor ((Count/Tick))
board.cache_hierarchy.dcache.tags.occupancies::processor.cores.core.data          171                       # Average occupied blocks per tick, per requestor ((Count/Tick))
board.cache_hierarchy.dcache.tags.avgOccs::cache_hierarchy.dcache.prefetcher     0.308594                       # Average percentage of cache occupancy ((Ratio/Tick))
board.cache_hierarchy.dcache.tags.avgOccs::processor.cores.core.data     0.333984                       # Average percentage of cache occupancy ((Ratio/Tick))
board.cache_hierarchy.dcache.tags.avgOccs::total     0.642578                       # Average percentage of cache occupancy ((Ratio/Tick))
board.cache_hierarchy.dcache.tags.occupanciesTaskId::1022          158                       # Occupied blocks per task id (Count)
board.cache_hierarchy.dcache.tags.occupanciesTaskId::1024          171                       # Occupied blocks per task id (Count)
board.cache_hierarchy.dcache.tags.ageTaskId_1022::1          158                       # Occupied blocks per task id, per block age (Count)
board.cache_hierarchy.dcache.tags.ageTaskId_1024::1          171                       # Occupied blocks per task id, per block age (Count)
board.cache_hierarchy.dcache.tags.ratioOccsTaskId::1022     0.308594                       # Ratio of occupied blocks and all blocks, per task id (Ratio)
board.cache_hierarchy.dcache.tags.ratioOccsTaskId::1024     0.333984                       # Ratio of occupied blocks and all blocks, per task id (Ratio)
board.cache_hierarchy.dcache.tags.tagAccesses        57864                       # Number of tag accesses (Count)
board.cache_hierarchy.dcache.tags.dataAccesses        57864                       # Number of data accesses (Count)
board.cache_hierarchy.dcache.tags.power_state.pwrStateResidencyTicks::UNDEFINED     23789520                       # Cumulative time (in ticks) in various power states (Tick)
board.cache_hierarchy.icache.demandHits::processor.cores.core.inst        10050                       # number of demand (read+write) hits (Count)
board.cache_hierarchy.icache.demandHits::total        10050                       # number of demand (read+write) hits (Count)
board.cache_hierarchy.icache.overallHits::processor.cores.core.inst        10050                       # number of overall hits (Count)
board.cache_hierarchy.icache.overallHits::total        10050                       # number of overall hits (Count)
board.cache_hierarchy.icache.demandMisses::processor.cores.core.inst         2027                       # number of demand (read+write) misses (Count)
board.cache_hierarchy.icache.demandMisses::total         2027                       # number of demand (read+write) misses (Count)
board.cache_hierarchy.icache.overallMisses::processor.cores.core.inst         2027                       # number of overall misses (Count)
board.cache_hierarchy.icache.overallMisses::total         2027                       # number of overall misses (Count)
board.cache_hierarchy.icache.demandMissLatency::processor.cores.core.inst     24789519                       # number of demand (read+write) miss ticks (Tick)
board.cache_hierarchy.icache.demandMissLatency::total     24789519                       # number of demand (read+write) miss ticks (Tick)
board.cache_hierarchy.icache.overallMissLatency::processor.cores.core.inst     24789519                       # number of overall miss ticks (Tick)
board.cache_hierarchy.icache.overallMissLatency::total     24789519                       # number of overall miss ticks (Tick)
board.cache_hierarchy.icache.demandAccesses::processor.cores.core.inst        12077                       # number of demand (read+write) accesses (Count)
board.cache_hierarchy.icache.demandAccesses::total        12077                       # number of demand (read+write) accesses (Count)
board.cache_hierarchy.icache.overallAccesses::processor.cores.core.inst        12077                       # number of overall (read+write) accesses (Count)
board.cache_hierarchy.icache.overallAccesses::total        12077                       # number of overall (read+write) accesses (Count)
board.cache_hierarchy.icache.demandMissRate::processor.cores.core.inst     0.167840                       # miss rate for demand accesses (Ratio)
board.cache_hierarchy.icache.demandMissRate::total     0.167840                       # miss rate for demand accesses (Ratio)
board.cache_hierarchy.icache.overallMissRate::processor.cores.core.inst     0.167840                       # miss rate for overall accesses (Ratio)
board.cache_hierarchy.icache.overallMissRate::total     0.167840                       # miss rate for overall accesses (Ratio)
board.cache_hierarchy.icache.demandAvgMissLatency::processor.cores.core.inst 12229.659102                       # average overall miss latency in ticks ((Tick/Count))
board.cache_hierarchy.icache.demandAvgMissLatency::total 12229.659102                       # average overall miss latency in ticks ((Tick/Count))
board.cache_hierarchy.icache.overallAvgMissLatency::processor.cores.core.inst 12229.659102                       # average overall miss latency ((Tick/Count))
board.cache_hierarchy.icache.overallAvgMissLatency::total 12229.659102                       # average overall miss latency ((Tick/Count))
board.cache_hierarchy.icache.blockedCycles::no_mshrs            0                       # number of cycles access was blocked (Cycle)
board.cache_hierarchy.icache.blockedCycles::no_targets            0                       # number of cycles access was blocked (Cycle)
board.cache_hierarchy.icache.blockedCauses::no_mshrs            0                       # number of times access was blocked (Count)
board.cache_hierarchy.icache.blockedCauses::no_targets            0                       # number of times access was blocked (Count)
board.cache_hierarchy.icache.avgBlocked::no_mshrs          nan                       # average number of cycles each access was blocked ((Cycle/Count))
board.cache_hierarchy.icache.avgBlocked::no_targets          nan                       # average number of cycles each access was blocked ((Cycle/Count))
board.cache_hierarchy.icache.writebacks::writebacks          753                       # number of writebacks (Count)
board.cache_hierarchy.icache.writebacks::total          753                       # number of writebacks (Count)
board.cache_hierarchy.icache.demandMshrHits::processor.cores.core.inst         2027                       # number of demand (read+write) MSHR hits (Count)
board.cache_hierarchy.icache.demandMshrHits::total         2027                       # number of demand (read+write) MSHR hits (Count)
board.cache_hierarchy.icache.overallMshrHits::processor.cores.core.inst         2027                       # number of overall MSHR hits (Count)
board.cache_hierarchy.icache.overallMshrHits::total         2027                       # number of overall MSHR hits (Count)
board.cache_hierarchy.icache.overallMshrMisses::cache_hierarchy.icache.prefetcher          775                       # number of overall MSHR misses (Count)
board.cache_hierarchy.icache.overallMshrMisses::total          775                       # number of overall MSHR misses (Count)
board.cache_hierarchy.icache.overallMshrMissLatency::cache_hierarchy.icache.prefetcher     39816884                       # number of overall MSHR miss ticks (Tick)
board.cache_hierarchy.icache.overallMshrMissLatency::total     39816884                       # number of overall MSHR miss ticks (Tick)
board.cache_hierarchy.icache.overallMshrMissRate::cache_hierarchy.icache.prefetcher          inf                       # mshr miss ratio for overall accesses (Ratio)
board.cache_hierarchy.icache.overallMshrMissRate::total     0.064172                       # mshr miss ratio for overall accesses (Ratio)
board.cache_hierarchy.icache.overallAvgMshrMissLatency::cache_hierarchy.icache.prefetcher 51376.624516                       # average overall mshr miss latency ((Tick/Count))
board.cache_hierarchy.icache.overallAvgMshrMissLatency::total 51376.624516                       # average overall mshr miss latency ((Tick/Count))
board.cache_hierarchy.icache.replacements          753                       # number of replacements (Count)
board.cache_hierarchy.icache.HardPFReq.mshrMisses::cache_hierarchy.icache.prefetcher          775                       # number of HardPFReq MSHR misses (Count)
board.cache_hierarchy.icache.HardPFReq.mshrMisses::total          775                       # number of HardPFReq MSHR misses (Count)
board.cache_hierarchy.icache.HardPFReq.mshrMissLatency::cache_hierarchy.icache.prefetcher     39816884                       # number of HardPFReq MSHR miss ticks (Tick)
board.cache_hierarchy.icache.HardPFReq.mshrMissLatency::total     39816884                       # number of HardPFReq MSHR miss ticks (Tick)
board.cache_hierarchy.icache.HardPFReq.mshrMissRate::cache_hierarchy.icache.prefetcher          inf                       # mshr miss rate for HardPFReq accesses (Ratio)
board.cache_hierarchy.icache.HardPFReq.mshrMissRate::total          inf                       # mshr miss rate for HardPFReq accesses (Ratio)
board.cache_hierarchy.icache.HardPFReq.avgMshrMissLatency::cache_hierarchy.icache.prefetcher 51376.624516                       # average HardPFReq mshr miss latency ((Tick/Count))
board.cache_hierarchy.icache.HardPFReq.avgMshrMissLatency::total 51376.624516                       # average HardPFReq mshr miss latency ((Tick/Count))
board.cache_hierarchy.icache.ReadReq.hits::processor.cores.core.inst        10050                       # number of ReadReq hits (Count)
board.cache_hierarchy.icache.ReadReq.hits::total        10050                       # number of ReadReq hits (Count)
board.cache_hierarchy.icache.ReadReq.misses::processor.cores.core.inst         2027                       # number of ReadReq misses (Count)
board.cache_hierarchy.icache.ReadReq.misses::total         2027                       # number of ReadReq misses (Count)
board.cache_hierarchy.icache.ReadReq.missLatency::processor.cores.core.inst     24789519                       # number of ReadReq miss ticks (Tick)
board.cache_hierarchy.icache.ReadReq.missLatency::total     24789519                       # number of ReadReq miss ticks (Tick)
board.cache_hierarchy.icache.ReadReq.accesses::processor.cores.core.inst        12077                       # number of ReadReq accesses(hits+misses) (Count)
board.cache_hierarchy.icache.ReadReq.accesses::total        12077                       # number of ReadReq accesses(hits+misses) (Count)
board.cache_hierarchy.icache.ReadReq.missRate::processor.cores.core.inst     0.167840                       # miss rate for ReadReq accesses (Ratio)
board.cache_hierarchy.icache.ReadReq.missRate::total     0.167840                       # miss rate for ReadReq accesses (Ratio)
board.cache_hierarchy.icache.ReadReq.avgMissLatency::processor.cores.core.inst 12229.659102                       # average ReadReq miss latency ((Tick/Count))
board.cache_hierarchy.icache.ReadReq.avgMissLatency::total 12229.659102                       # average ReadReq miss latency ((Tick/Count))
board.cache_hierarchy.icache.ReadReq.mshrHits::processor.cores.core.inst         2027                       # number of ReadReq MSHR hits (Count)
board.cache_hierarchy.icache.ReadReq.mshrHits::total         2027                       # number of ReadReq MSHR hits (Count)
board.cache_hierarchy.icache.power_state.pwrStateResidencyTicks::UNDEFINED     23789520                       # Cumulative time (in ticks) in various power states (Tick)
board.cache_hierarchy.icache.prefetcher.demandMshrMisses            0                       # demands not covered by prefetchs (Count)
board.cache_hierarchy.icache.prefetcher.pfIssued          775                       # number of hwpf issued (Count)
board.cache_hierarchy.icache.prefetcher.pfUnused          171                       # number of HardPF blocks evicted w/o reference (Count)
board.cache_hierarchy.icache.prefetcher.pfUseful           64                       # number of useful prefetch (Count)
board.cache_hierarchy.icache.prefetcher.pfUsefulButMiss            0                       # number of hit on prefetch but cache block is not in an usable state (Count)
board.cache_hierarchy.icache.prefetcher.accuracy     0.082581                       # accuracy of the prefetcher (Count)
board.cache_hierarchy.icache.prefetcher.coverage            1                       # coverage brought by this prefetcher (Count)
board.cache_hierarchy.icache.prefetcher.pfHitInCache            0                       # number of prefetches hitting in cache (Count)
board.cache_hierarchy.icache.prefetcher.pfHitInMSHR            0                       # number of prefetches hitting in a MSHR (Count)
board.cache_hierarchy.icache.prefetcher.pfHitInWB            0                       # number of prefetches hit in the Write Buffer (Count)
board.cache_hierarchy.icache.prefetcher.pfLate            0                       # number of late prefetches (hitting in cache, MSHR or WB) (Count)
board.cache_hierarchy.icache.prefetcher.fdipInsertions            0                       # Number of notifications from an insertion in the FTQ (Count)
board.cache_hierarchy.icache.prefetcher.pfIdentified        18869                       # number of prefetches identified. (Count)
board.cache_hierarchy.icache.prefetcher.pfInCache        18093                       # number of prefetches hit in in cache (Count)
board.cache_hierarchy.icache.prefetcher.pfInCachePrefetched            0                       # number of prefetches hit in cache but prefetched (Count)
board.cache_hierarchy.icache.prefetcher.pfPacketsCreated        18869                       # number of prefetch packets created (Count)
board.cache_hierarchy.icache.prefetcher.pfCandidatesAdded          776                       # Number of perfetch candidates added to the prefetch queue (Count)
board.cache_hierarchy.icache.prefetcher.translationFail            0                       # Number of prefetches that failed translation (Count)
board.cache_hierarchy.icache.prefetcher.translationSuccess        18869                       # Number of prefetches that succeeded translation (Count)
board.cache_hierarchy.icache.prefetcher.power_state.pwrStateResidencyTicks::UNDEFINED     23789520                       # Cumulative time (in ticks) in various power states (Tick)
board.cache_hierarchy.icache.tags.tagsInUse   510.498781                       # Average ticks per tags in use ((Tick/Count))
board.cache_hierarchy.icache.tags.totalRefs        17104                       # Total number of references to valid blocks. (Count)
board.cache_hierarchy.icache.tags.sampledRefs          753                       # Sample count of references to valid blocks. (Count)
board.cache_hierarchy.icache.tags.avgRefs    22.714475                       # Average number of references to valid blocks. ((Count/Count))
board.cache_hierarchy.icache.tags.warmupTick            0                       # The tick when the warmup percentage was hit. (Tick)
board.cache_hierarchy.icache.tags.occupancies::processor.cores.core.inst    32.043610                       # Average occupied blocks per tick, per requestor ((Count/Tick))
board.cache_hierarchy.icache.tags.occupancies::cache_hierarchy.icache.prefetcher   478.455171                       # Average occupied blocks per tick, per requestor ((Count/Tick))
board.cache_hierarchy.icache.tags.avgOccs::processor.cores.core.inst     0.062585                       # Average percentage of cache occupancy ((Ratio/Tick))
board.cache_hierarchy.icache.tags.avgOccs::cache_hierarchy.icache.prefetcher     0.934483                       # Average percentage of cache occupancy ((Ratio/Tick))
board.cache_hierarchy.icache.tags.avgOccs::total     0.997068                       # Average percentage of cache occupancy ((Ratio/Tick))
board.cache_hierarchy.icache.tags.occupanciesTaskId::1022          512                       # Occupied blocks per task id (Count)
board.cache_hierarchy.icache.tags.ageTaskId_1022::0          512                       # Occupied blocks per task id, per block age (Count)
board.cache_hierarchy.icache.tags.ratioOccsTaskId::1022            1                       # Ratio of occupied blocks and all blocks, per task id (Ratio)
board.cache_hierarchy.icache.tags.tagAccesses        97390                       # Number of tag accesses (Count)
board.cache_hierarchy.icache.tags.dataAccesses        97390                       # Number of data accesses (Count)
board.cache_hierarchy.icache.tags.power_state.pwrStateResidencyTicks::UNDEFINED     23789520                       # Cumulative time (in ticks) in various power states (Tick)
board.cache_hierarchy.l2bus.transDist::ReadResp          774                       # Transaction distribution (Count)
board.cache_hierarchy.l2bus.transDist::WritebackClean          753                       # Transaction distribution (Count)
board.cache_hierarchy.l2bus.transDist::ReadSharedReq          775                       # Transaction distribution (Count)
board.cache_hierarchy.l2bus.pktCount_board.cache_hierarchy.icache.mem_side_port::board.cache_hierarchy.l2cache.cpu_side_port         2302                       # Packet count per connected requestor and responder (Count)
board.cache_hierarchy.l2bus.pktCount::total         2302                       # Packet count per connected requestor and responder (Count)
board.cache_hierarchy.l2bus.pktSize_board.cache_hierarchy.icache.mem_side_port::board.cache_hierarchy.l2cache.cpu_side_port        97728                       # Cumulative packet size per connected requestor and responder (Byte)
board.cache_hierarchy.l2bus.pktSize::total        97728                       # Cumulative packet size per connected requestor and responder (Byte)
board.cache_hierarchy.l2bus.snoops                  0                       # Total snoops (Count)
board.cache_hierarchy.l2bus.snoopTraffic            0                       # Total snoop traffic (Byte)
board.cache_hierarchy.l2bus.snoopFanout::samples          775                       # Request fanout histogram (Count)
board.cache_hierarchy.l2bus.snoopFanout::mean            0                       # Request fanout histogram (Count)
board.cache_hierarchy.l2bus.snoopFanout::stdev            0                       # Request fanout histogram (Count)
board.cache_hierarchy.l2bus.snoopFanout::underflows            0      0.00%      0.00% # Request fanout histogram (Count)
board.cache_hierarchy.l2bus.snoopFanout::0          775    100.00%    100.00% # Request fanout histogram (Count)
board.cache_hierarchy.l2bus.snoopFanout::1            0      0.00%    100.00% # Request fanout histogram (Count)
board.cache_hierarchy.l2bus.snoopFanout::2            0      0.00%    100.00% # Request fanout histogram (Count)
board.cache_hierarchy.l2bus.snoopFanout::3            0      0.00%    100.00% # Request fanout histogram (Count)
board.cache_hierarchy.l2bus.snoopFanout::overflows            0      0.00%    100.00% # Request fanout histogram (Count)
board.cache_hierarchy.l2bus.snoopFanout::min_value            0                       # Request fanout histogram (Count)
board.cache_hierarchy.l2bus.snoopFanout::max_value            0                       # Request fanout histogram (Count)
board.cache_hierarchy.l2bus.snoopFanout::total          775                       # Request fanout histogram (Count)
board.cache_hierarchy.l2bus.power_state.pwrStateResidencyTicks::UNDEFINED     23789520                       # Cumulative time (in ticks) in various power states (Tick)
board.cache_hierarchy.l2bus.reqLayer0.occupancy      1087346                       # Layer occupancy (ticks) (Tick)
board.cache_hierarchy.l2bus.reqLayer0.utilization          0.1                       # Layer utilization (Ratio)
board.cache_hierarchy.l2bus.respLayer0.occupancy       773226                       # Layer occupancy (ticks) (Tick)
board.cache_hierarchy.l2bus.respLayer0.utilization          0.1                       # Layer utilization (Ratio)
board.cache_hierarchy.l2bus.snoop_filter.totRequests         1528                       # Total number of requests made to the snoop filter. (Count)
board.cache_hierarchy.l2bus.snoop_filter.hitSingleRequests          748                       # Number of requests hitting in the snoop filter with a single holder of the requested data. (Count)
board.cache_hierarchy.l2bus.snoop_filter.hitMultiRequests            5                       # Number of requests hitting in the snoop filter with multiple (>1) holders of the requested data. (Count)
board.cache_hierarchy.l2bus.snoop_filter.totSnoops            0                       # Total number of snoops made to the snoop filter. (Count)
board.cache_hierarchy.l2bus.snoop_filter.hitSingleSnoops            0                       # Number of snoops hitting in the snoop filter with a single holder of the requested data. (Count)
board.cache_hierarchy.l2bus.snoop_filter.hitMultiSnoops            0                       # Number of snoops hitting in the snoop filter with multiple (>1) holders of the requested data. (Count)
board.cache_hierarchy.l2cache.demandHits::cache_hierarchy.icache.prefetcher           10                       # number of demand (read+write) hits (Count)
board.cache_hierarchy.l2cache.demandHits::total           10                       # number of demand (read+write) hits (Count)
board.cache_hierarchy.l2cache.overallHits::cache_hierarchy.icache.prefetcher           10                       # number of overall hits (Count)
board.cache_hierarchy.l2cache.overallHits::total           10                       # number of overall hits (Count)
board.cache_hierarchy.l2cache.demandMisses::cache_hierarchy.icache.prefetcher          765                       # number of demand (read+write) misses (Count)
board.cache_hierarchy.l2cache.demandMisses::total          765                       # number of demand (read+write) misses (Count)
board.cache_hierarchy.l2cache.overallMisses::cache_hierarchy.icache.prefetcher          765                       # number of overall misses (Count)
board.cache_hierarchy.l2cache.overallMisses::total          765                       # number of overall misses (Count)
board.cache_hierarchy.l2cache.demandMissLatency::cache_hierarchy.icache.prefetcher     39498896                       # number of demand (read+write) miss ticks (Tick)
board.cache_hierarchy.l2cache.demandMissLatency::total     39498896                       # number of demand (read+write) miss ticks (Tick)
board.cache_hierarchy.l2cache.overallMissLatency::cache_hierarchy.icache.prefetcher     39498896                       # number of overall miss ticks (Tick)
board.cache_hierarchy.l2cache.overallMissLatency::total     39498896                       # number of overall miss ticks (Tick)
board.cache_hierarchy.l2cache.demandAccesses::cache_hierarchy.icache.prefetcher          775                       # number of demand (read+write) accesses (Count)
board.cache_hierarchy.l2cache.demandAccesses::total          775                       # number of demand (read+write) accesses (Count)
board.cache_hierarchy.l2cache.overallAccesses::cache_hierarchy.icache.prefetcher          775                       # number of overall (read+write) accesses (Count)
board.cache_hierarchy.l2cache.overallAccesses::total          775                       # number of overall (read+write) accesses (Count)
board.cache_hierarchy.l2cache.demandMissRate::cache_hierarchy.icache.prefetcher     0.987097                       # miss rate for demand accesses (Ratio)
board.cache_hierarchy.l2cache.demandMissRate::total     0.987097                       # miss rate for demand accesses (Ratio)
board.cache_hierarchy.l2cache.overallMissRate::cache_hierarchy.icache.prefetcher     0.987097                       # miss rate for overall accesses (Ratio)
board.cache_hierarchy.l2cache.overallMissRate::total     0.987097                       # miss rate for overall accesses (Ratio)
board.cache_hierarchy.l2cache.demandAvgMissLatency::cache_hierarchy.icache.prefetcher 51632.543791                       # average overall miss latency in ticks ((Tick/Count))
board.cache_hierarchy.l2cache.demandAvgMissLatency::total 51632.543791                       # average overall miss latency in ticks ((Tick/Count))
board.cache_hierarchy.l2cache.overallAvgMissLatency::cache_hierarchy.icache.prefetcher 51632.543791                       # average overall miss latency ((Tick/Count))
board.cache_hierarchy.l2cache.overallAvgMissLatency::total 51632.543791                       # average overall miss latency ((Tick/Count))
board.cache_hierarchy.l2cache.blockedCycles::no_mshrs            0                       # number of cycles access was blocked (Cycle)
board.cache_hierarchy.l2cache.blockedCycles::no_targets            0                       # number of cycles access was blocked (Cycle)
board.cache_hierarchy.l2cache.blockedCauses::no_mshrs            0                       # number of times access was blocked (Count)
board.cache_hierarchy.l2cache.blockedCauses::no_targets            0                       # number of times access was blocked (Count)
board.cache_hierarchy.l2cache.avgBlocked::no_mshrs          nan                       # average number of cycles each access was blocked ((Cycle/Count))
board.cache_hierarchy.l2cache.avgBlocked::no_targets          nan                       # average number of cycles each access was blocked ((Cycle/Count))
board.cache_hierarchy.l2cache.demandMshrMisses::cache_hierarchy.icache.prefetcher          765                       # number of demand (read+write) MSHR misses (Count)
board.cache_hierarchy.l2cache.demandMshrMisses::total          765                       # number of demand (read+write) MSHR misses (Count)
board.cache_hierarchy.l2cache.overallMshrMisses::cache_hierarchy.icache.prefetcher          765                       # number of overall MSHR misses (Count)
board.cache_hierarchy.l2cache.overallMshrMisses::total          765                       # number of overall MSHR misses (Count)
board.cache_hierarchy.l2cache.demandMshrMissLatency::cache_hierarchy.icache.prefetcher     39243818                       # number of demand (read+write) MSHR miss ticks (Tick)
board.cache_hierarchy.l2cache.demandMshrMissLatency::total     39243818                       # number of demand (read+write) MSHR miss ticks (Tick)
board.cache_hierarchy.l2cache.overallMshrMissLatency::cache_hierarchy.icache.prefetcher     39243818                       # number of overall MSHR miss ticks (Tick)
board.cache_hierarchy.l2cache.overallMshrMissLatency::total     39243818                       # number of overall MSHR miss ticks (Tick)
board.cache_hierarchy.l2cache.demandMshrMissRate::cache_hierarchy.icache.prefetcher     0.987097                       # mshr miss ratio for demand accesses (Ratio)
board.cache_hierarchy.l2cache.demandMshrMissRate::total     0.987097                       # mshr miss ratio for demand accesses (Ratio)
board.cache_hierarchy.l2cache.overallMshrMissRate::cache_hierarchy.icache.prefetcher     0.987097                       # mshr miss ratio for overall accesses (Ratio)
board.cache_hierarchy.l2cache.overallMshrMissRate::total     0.987097                       # mshr miss ratio for overall accesses (Ratio)
board.cache_hierarchy.l2cache.demandAvgMshrMissLatency::cache_hierarchy.icache.prefetcher 51299.108497                       # average overall mshr miss latency ((Tick/Count))
board.cache_hierarchy.l2cache.demandAvgMshrMissLatency::total 51299.108497                       # average overall mshr miss latency ((Tick/Count))
board.cache_hierarchy.l2cache.overallAvgMshrMissLatency::cache_hierarchy.icache.prefetcher 51299.108497                       # average overall mshr miss latency ((Tick/Count))
board.cache_hierarchy.l2cache.overallAvgMshrMissLatency::total 51299.108497                       # average overall mshr miss latency ((Tick/Count))
board.cache_hierarchy.l2cache.replacements            0                       # number of replacements (Count)
board.cache_hierarchy.l2cache.ReadSharedReq.hits::cache_hierarchy.icache.prefetcher           10                       # number of ReadSharedReq hits (Count)
board.cache_hierarchy.l2cache.ReadSharedReq.hits::total           10                       # number of ReadSharedReq hits (Count)
board.cache_hierarchy.l2cache.ReadSharedReq.misses::cache_hierarchy.icache.prefetcher          765                       # number of ReadSharedReq misses (Count)
board.cache_hierarchy.l2cache.ReadSharedReq.misses::total          765                       # number of ReadSharedReq misses (Count)
board.cache_hierarchy.l2cache.ReadSharedReq.missLatency::cache_hierarchy.icache.prefetcher     39498896                       # number of ReadSharedReq miss ticks (Tick)
board.cache_hierarchy.l2cache.ReadSharedReq.missLatency::total     39498896                       # number of ReadSharedReq miss ticks (Tick)
board.cache_hierarchy.l2cache.ReadSharedReq.accesses::cache_hierarchy.icache.prefetcher          775                       # number of ReadSharedReq accesses(hits+misses) (Count)
board.cache_hierarchy.l2cache.ReadSharedReq.accesses::total          775                       # number of ReadSharedReq accesses(hits+misses) (Count)
board.cache_hierarchy.l2cache.ReadSharedReq.missRate::cache_hierarchy.icache.prefetcher     0.987097                       # miss rate for ReadSharedReq accesses (Ratio)
board.cache_hierarchy.l2cache.ReadSharedReq.missRate::total     0.987097                       # miss rate for ReadSharedReq accesses (Ratio)
board.cache_hierarchy.l2cache.ReadSharedReq.avgMissLatency::cache_hierarchy.icache.prefetcher 51632.543791                       # average ReadSharedReq miss latency ((Tick/Count))
board.cache_hierarchy.l2cache.ReadSharedReq.avgMissLatency::total 51632.543791                       # average ReadSharedReq miss latency ((Tick/Count))
board.cache_hierarchy.l2cache.ReadSharedReq.mshrMisses::cache_hierarchy.icache.prefetcher          765                       # number of ReadSharedReq MSHR misses (Count)
board.cache_hierarchy.l2cache.ReadSharedReq.mshrMisses::total          765                       # number of ReadSharedReq MSHR misses (Count)
board.cache_hierarchy.l2cache.ReadSharedReq.mshrMissLatency::cache_hierarchy.icache.prefetcher     39243818                       # number of ReadSharedReq MSHR miss ticks (Tick)
board.cache_hierarchy.l2cache.ReadSharedReq.mshrMissLatency::total     39243818                       # number of ReadSharedReq MSHR miss ticks (Tick)
board.cache_hierarchy.l2cache.ReadSharedReq.mshrMissRate::cache_hierarchy.icache.prefetcher     0.987097                       # mshr miss rate for ReadSharedReq accesses (Ratio)
board.cache_hierarchy.l2cache.ReadSharedReq.mshrMissRate::total     0.987097                       # mshr miss rate for ReadSharedReq accesses (Ratio)
board.cache_hierarchy.l2cache.ReadSharedReq.avgMshrMissLatency::cache_hierarchy.icache.prefetcher 51299.108497                       # average ReadSharedReq mshr miss latency ((Tick/Count))
board.cache_hierarchy.l2cache.ReadSharedReq.avgMshrMissLatency::total 51299.108497                       # average ReadSharedReq mshr miss latency ((Tick/Count))
board.cache_hierarchy.l2cache.WritebackClean.hits::writebacks          748                       # number of WritebackClean hits (Count)
board.cache_hierarchy.l2cache.WritebackClean.hits::total          748                       # number of WritebackClean hits (Count)
board.cache_hierarchy.l2cache.WritebackClean.accesses::writebacks          748                       # number of WritebackClean accesses(hits+misses) (Count)
board.cache_hierarchy.l2cache.WritebackClean.accesses::total          748                       # number of WritebackClean accesses(hits+misses) (Count)
board.cache_hierarchy.l2cache.power_state.pwrStateResidencyTicks::UNDEFINED     23789520                       # Cumulative time (in ticks) in various power states (Tick)
board.cache_hierarchy.l2cache.prefetcher.demandMshrMisses          765                       # demands not covered by prefetchs (Count)
board.cache_hierarchy.l2cache.prefetcher.pfIssued            0                       # number of hwpf issued (Count)
board.cache_hierarchy.l2cache.prefetcher.pfUseful            0                       # number of useful prefetch (Count)
board.cache_hierarchy.l2cache.prefetcher.pfUsefulButMiss            0                       # number of hit on prefetch but cache block is not in an usable state (Count)
board.cache_hierarchy.l2cache.prefetcher.accuracy          nan                       # accuracy of the prefetcher (Count)
board.cache_hierarchy.l2cache.prefetcher.coverage            0                       # coverage brought by this prefetcher (Count)
board.cache_hierarchy.l2cache.prefetcher.pfHitInCache            0                       # number of prefetches hitting in cache (Count)
board.cache_hierarchy.l2cache.prefetcher.pfHitInMSHR            0                       # number of prefetches hitting in a MSHR (Count)
board.cache_hierarchy.l2cache.prefetcher.pfHitInWB            0                       # number of prefetches hit in the Write Buffer (Count)
board.cache_hierarchy.l2cache.prefetcher.pfLate            0                       # number of late prefetches (hitting in cache, MSHR or WB) (Count)
board.cache_hierarchy.l2cache.prefetcher.pfIdentified            0                       # number of prefetch candidates identified (Count)
board.cache_hierarchy.l2cache.prefetcher.pfBufferHit            0                       # number of redundant prefetches already in prefetch queue (Count)
board.cache_hierarchy.l2cache.prefetcher.pfInCache            0                       # number of redundant prefetches already in cache/mshr dropped (Count)
board.cache_hierarchy.l2cache.prefetcher.pfRemovedDemand            0                       # number of prefetches dropped due to a demand for the same address (Count)
board.cache_hierarchy.l2cache.prefetcher.pfRemovedFull            0                       # number of prefetches dropped due to prefetch queue size (Count)
board.cache_hierarchy.l2cache.prefetcher.pfSpanPage            0                       # number of prefetches that crossed the page (Count)
board.cache_hierarchy.l2cache.prefetcher.pfUsefulSpanPage            0                       # number of prefetches that is useful and crossed the page (Count)
board.cache_hierarchy.l2cache.prefetcher.power_state.pwrStateResidencyTicks::UNDEFINED     23789520                       # Cumulative time (in ticks) in various power states (Tick)
board.cache_hierarchy.l2cache.tags.tagsInUse  1266.434553                       # Average ticks per tags in use ((Tick/Count))
board.cache_hierarchy.l2cache.tags.totalRefs            0                       # Total number of references to valid blocks. (Count)
board.cache_hierarchy.l2cache.tags.sampledRefs            0                       # Sample count of references to valid blocks. (Count)
board.cache_hierarchy.l2cache.tags.avgRefs          nan                       # Average number of references to valid blocks. ((Count/Count))
board.cache_hierarchy.l2cache.tags.warmupTick            0                       # The tick when the warmup percentage was hit. (Tick)
board.cache_hierarchy.l2cache.tags.occupancies::cache_hierarchy.dcache.prefetcher          102                       # Average occupied blocks per tick, per requestor ((Count/Tick))
board.cache_hierarchy.l2cache.tags.occupancies::processor.cores.core.inst           94                       # Average occupied blocks per tick, per requestor ((Count/Tick))
board.cache_hierarchy.l2cache.tags.occupancies::processor.cores.core.data          160                       # Average occupied blocks per tick, per requestor ((Count/Tick))
board.cache_hierarchy.l2cache.tags.occupancies::cache_hierarchy.icache.prefetcher   839.434553                       # Average occupied blocks per tick, per requestor ((Count/Tick))
board.cache_hierarchy.l2cache.tags.occupancies::cache_hierarchy.l2cache.prefetcher           71                       # Average occupied blocks per tick, per requestor ((Count/Tick))
board.cache_hierarchy.l2cache.tags.avgOccs::cache_hierarchy.dcache.prefetcher     0.006226                       # Average percentage of cache occupancy ((Ratio/Tick))
board.cache_hierarchy.l2cache.tags.avgOccs::processor.cores.core.inst     0.005737                       # Average percentage of cache occupancy ((Ratio/Tick))
board.cache_hierarchy.l2cache.tags.avgOccs::processor.cores.core.data     0.009766                       # Average percentage of cache occupancy ((Ratio/Tick))
board.cache_hierarchy.l2cache.tags.avgOccs::cache_hierarchy.icache.prefetcher     0.051235                       # Average percentage of cache occupancy ((Ratio/Tick))
board.cache_hierarchy.l2cache.tags.avgOccs::cache_hierarchy.l2cache.prefetcher     0.004333                       # Average percentage of cache occupancy ((Ratio/Tick))
board.cache_hierarchy.l2cache.tags.avgOccs::total     0.077297                       # Average percentage of cache occupancy ((Ratio/Tick))
board.cache_hierarchy.l2cache.tags.occupanciesTaskId::1022         1392                       # Occupied blocks per task id (Count)
board.cache_hierarchy.l2cache.tags.occupanciesTaskId::1024          254                       # Occupied blocks per task id (Count)
board.cache_hierarchy.l2cache.tags.ageTaskId_1022::0          728                       # Occupied blocks per task id, per block age (Count)
board.cache_hierarchy.l2cache.tags.ageTaskId_1022::1          664                       # Occupied blocks per task id, per block age (Count)
board.cache_hierarchy.l2cache.tags.ageTaskId_1024::1          254                       # Occupied blocks per task id, per block age (Count)
board.cache_hierarchy.l2cache.tags.ratioOccsTaskId::1022     0.084961                       # Ratio of occupied blocks and all blocks, per task id (Ratio)
board.cache_hierarchy.l2cache.tags.ratioOccsTaskId::1024     0.015503                       # Ratio of occupied blocks and all blocks, per task id (Ratio)
board.cache_hierarchy.l2cache.tags.tagAccesses        25134                       # Number of tag accesses (Count)
board.cache_hierarchy.l2cache.tags.dataAccesses        25134                       # Number of data accesses (Count)
board.cache_hierarchy.l2cache.tags.power_state.pwrStateResidencyTicks::UNDEFINED     23789520                       # Cumulative time (in ticks) in various power states (Tick)
board.cache_hierarchy.membus.transDist::ReadResp          766                       # Transaction distribution (Count)
board.cache_hierarchy.membus.transDist::ReadSharedReq          766                       # Transaction distribution (Count)
board.cache_hierarchy.membus.pktCount_board.cache_hierarchy.l2cache.mem_side_port::board.memory.mem_ctrl.port         1532                       # Packet count per connected requestor and responder (Count)
board.cache_hierarchy.membus.pktCount_board.cache_hierarchy.l2cache.mem_side_port::total         1532                       # Packet count per connected requestor and responder (Count)
board.cache_hierarchy.membus.pktCount::total         1532                       # Packet count per connected requestor and responder (Count)
board.cache_hierarchy.membus.pktSize_board.cache_hierarchy.l2cache.mem_side_port::board.memory.mem_ctrl.port        49024                       # Cumulative packet size per connected requestor and responder (Byte)
board.cache_hierarchy.membus.pktSize_board.cache_hierarchy.l2cache.mem_side_port::total        49024                       # Cumulative packet size per connected requestor and responder (Byte)
board.cache_hierarchy.membus.pktSize::total        49024                       # Cumulative packet size per connected requestor and responder (Byte)
board.cache_hierarchy.membus.snoops                 0                       # Total snoops (Count)
board.cache_hierarchy.membus.snoopTraffic            0                       # Total snoop traffic (Byte)
board.cache_hierarchy.membus.snoopFanout::samples          766                       # Request fanout histogram (Count)
board.cache_hierarchy.membus.snoopFanout::mean            0                       # Request fanout histogram (Count)
board.cache_hierarchy.membus.snoopFanout::stdev            0                       # Request fanout histogram (Count)
board.cache_hierarchy.membus.snoopFanout::underflows            0      0.00%      0.00% # Request fanout histogram (Count)
board.cache_hierarchy.membus.snoopFanout::0          766    100.00%    100.00% # Request fanout histogram (Count)
board.cache_hierarchy.membus.snoopFanout::1            0      0.00%    100.00% # Request fanout histogram (Count)
board.cache_hierarchy.membus.snoopFanout::overflows            0      0.00%    100.00% # Request fanout histogram (Count)
board.cache_hierarchy.membus.snoopFanout::min_value            0                       # Request fanout histogram (Count)
board.cache_hierarchy.membus.snoopFanout::max_value            0                       # Request fanout histogram (Count)
board.cache_hierarchy.membus.snoopFanout::total          766                       # Request fanout histogram (Count)
board.cache_hierarchy.membus.badaddr_responder.power_state.pwrStateResidencyTicks::UNDEFINED     23789520                       # Cumulative time (in ticks) in various power states (Tick)
board.cache_hierarchy.membus.power_state.pwrStateResidencyTicks::UNDEFINED     23789520                       # Cumulative time (in ticks) in various power states (Tick)
board.cache_hierarchy.membus.reqLayer0.occupancy       255310                       # Layer occupancy (ticks) (Tick)
board.cache_hierarchy.membus.reqLayer0.utilization          0.0                       # Layer utilization (Ratio)
board.cache_hierarchy.membus.respLayer1.occupancy       656616                       # Layer occupancy (ticks) (Tick)
board.cache_hierarchy.membus.respLayer1.utilization          0.1                       # Layer utilization (Ratio)
board.cache_hierarchy.membus.snoop_filter.totRequests          766                       # Total number of requests made to the snoop filter. (Count)
board.cache_hierarchy.membus.snoop_filter.hitSingleRequests            0                       # Number of requests hitting in the snoop filter with a single holder of the requested data. (Count)
board.cache_hierarchy.membus.snoop_filter.hitMultiRequests            0                       # Number of requests hitting in the snoop filter with multiple (>1) holders of the requested data. (Count)
board.cache_hierarchy.membus.snoop_filter.totSnoops            0                       # Total number of snoops made to the snoop filter. (Count)
board.cache_hierarchy.membus.snoop_filter.hitSingleSnoops            0                       # Number of snoops hitting in the snoop filter with a single holder of the requested data. (Count)
board.cache_hierarchy.membus.snoop_filter.hitMultiSnoops            0                       # Number of snoops hitting in the snoop filter with multiple (>1) holders of the requested data. (Count)
board.cache_hierarchy.mmubus.snoops                 0                       # Total snoops (Count)
board.cache_hierarchy.mmubus.snoopTraffic            0                       # Total snoop traffic (Byte)
board.cache_hierarchy.mmubus.snoopFanout::samples            0                       # Request fanout histogram (Count)
board.cache_hierarchy.mmubus.snoopFanout::mean          nan                       # Request fanout histogram (Count)
board.cache_hierarchy.mmubus.snoopFanout::stdev          nan                       # Request fanout histogram (Count)
board.cache_hierarchy.mmubus.snoopFanout::underflows            0                       # Request fanout histogram (Count)
board.cache_hierarchy.mmubus.snoopFanout::0            0                       # Request fanout histogram (Count)
board.cache_hierarchy.mmubus.snoopFanout::overflows            0                       # Request fanout histogram (Count)
board.cache_hierarchy.mmubus.snoopFanout::min_value            0                       # Request fanout histogram (Count)
board.cache_hierarchy.mmubus.snoopFanout::max_value            0                       # Request fanout histogram (Count)
board.cache_hierarchy.mmubus.snoopFanout::total            0                       # Request fanout histogram (Count)
board.cache_hierarchy.mmubus.power_state.pwrStateResidencyTicks::UNDEFINED     23789520                       # Cumulative time (in ticks) in various power states (Tick)
board.cache_hierarchy.mmubus.snoop_filter.totRequests            0                       # Total number of requests made to the snoop filter. (Count)
board.cache_hierarchy.mmubus.snoop_filter.hitSingleRequests            0                       # Number of requests hitting in the snoop filter with a single holder of the requested data. (Count)
board.cache_hierarchy.mmubus.snoop_filter.hitMultiRequests            0                       # Number of requests hitting in the snoop filter with multiple (>1) holders of the requested data. (Count)
board.cache_hierarchy.mmubus.snoop_filter.totSnoops            0                       # Total number of snoops made to the snoop filter. (Count)
board.cache_hierarchy.mmubus.snoop_filter.hitSingleSnoops            0                       # Number of snoops hitting in the snoop filter with a single holder of the requested data. (Count)
board.cache_hierarchy.mmubus.snoop_filter.hitMultiSnoops            0                       # Number of snoops hitting in the snoop filter with multiple (>1) holders of the requested data. (Count)
board.cache_hierarchy.mmucache.blockedCycles::no_mshrs            0                       # number of cycles access was blocked (Cycle)
board.cache_hierarchy.mmucache.blockedCycles::no_targets            0                       # number of cycles access was blocked (Cycle)
board.cache_hierarchy.mmucache.blockedCauses::no_mshrs            0                       # number of times access was blocked (Count)
board.cache_hierarchy.mmucache.blockedCauses::no_targets            0                       # number of times access was blocked (Count)
board.cache_hierarchy.mmucache.avgBlocked::no_mshrs          nan                       # average number of cycles each access was blocked ((Cycle/Count))
board.cache_hierarchy.mmucache.avgBlocked::no_targets          nan                       # average number of cycles each access was blocked ((Cycle/Count))
board.cache_hierarchy.mmucache.replacements            0                       # number of replacements (Count)
board.cache_hierarchy.mmucache.power_state.pwrStateResidencyTicks::UNDEFINED     23789520                       # Cumulative time (in ticks) in various power states (Tick)
board.cache_hierarchy.mmucache.tags.tagsInUse            0                       # Average ticks per tags in use ((Tick/Count))
board.cache_hierarchy.mmucache.tags.totalRefs            0                       # Total number of references to valid blocks. (Count)
board.cache_hierarchy.mmucache.tags.sampledRefs            0                       # Sample count of references to valid blocks. (Count)
board.cache_hierarchy.mmucache.tags.avgRefs          nan                       # Average number of references to valid blocks. ((Count/Count))
board.cache_hierarchy.mmucache.tags.warmupTick            0                       # The tick when the warmup percentage was hit. (Tick)
board.cache_hierarchy.mmucache.tags.tagAccesses            0                       # Number of tag accesses (Count)
board.cache_hierarchy.mmucache.tags.dataAccesses            0                       # Number of data accesses (Count)
board.cache_hierarchy.mmucache.tags.power_state.pwrStateResidencyTicks::UNDEFINED     23789520                       # Cumulative time (in ticks) in various power states (Tick)
board.clk_domain.clock                            333                       # Clock period in ticks (Tick)
board.clk_domain.voltage_domain.voltage             1                       # Voltage in Volts (Volt)
board.memory.mem_ctrl.avgPriority_cache_hierarchy.icache.prefetcher::samples       766.00                       # Average QoS priority value for accepted requests (Count)
board.memory.mem_ctrl.priorityMinLatency 0.000000018750                       # per QoS priority minimum request to response latency (Second)
board.memory.mem_ctrl.priorityMaxLatency 0.000000581678                       # per QoS priority maximum request to response latency (Second)
board.memory.mem_ctrl.numReadWriteTurnArounds            0                       # Number of turnarounds from READ to WRITE (Count)
board.memory.mem_ctrl.numWriteReadTurnArounds            0                       # Number of turnarounds from WRITE to READ (Count)
board.memory.mem_ctrl.numStayReadState           1535                       # Number of times bus staying in READ state (Count)
board.memory.mem_ctrl.numStayWriteState             0                       # Number of times bus staying in WRITE state (Count)
board.memory.mem_ctrl.readReqs                    766                       # Number of read requests accepted (Count)
board.memory.mem_ctrl.writeReqs                     0                       # Number of write requests accepted (Count)
board.memory.mem_ctrl.readBursts                  766                       # Number of controller read bursts, including those serviced by the write queue (Count)
board.memory.mem_ctrl.writeBursts                   0                       # Number of controller write bursts, including those merged in the write queue (Count)
board.memory.mem_ctrl.servicedByWrQ                 0                       # Number of controller read bursts serviced by the write queue (Count)
board.memory.mem_ctrl.mergedWrBursts                0                       # Number of controller write bursts merged with an existing one (Count)
board.memory.mem_ctrl.neitherReadNorWriteReqs            0                       # Number of requests that are neither read nor write (Count)
board.memory.mem_ctrl.avgRdQLen                  2.82                       # Average read queue length when enqueuing ((Count/Tick))
board.memory.mem_ctrl.avgWrQLen                  0.00                       # Average write queue length when enqueuing ((Count/Tick))
board.memory.mem_ctrl.numRdRetry                    0                       # Number of times read queue was full causing retry (Count)
board.memory.mem_ctrl.numWrRetry                    0                       # Number of times write queue was full causing retry (Count)
board.memory.mem_ctrl.readPktSize::0                0                       # Read request sizes (log2) (Count)
board.memory.mem_ctrl.readPktSize::1                0                       # Read request sizes (log2) (Count)
board.memory.mem_ctrl.readPktSize::2                0                       # Read request sizes (log2) (Count)
board.memory.mem_ctrl.readPktSize::3                0                       # Read request sizes (log2) (Count)
board.memory.mem_ctrl.readPktSize::4                0                       # Read request sizes (log2) (Count)
board.memory.mem_ctrl.readPktSize::5                0                       # Read request sizes (log2) (Count)
board.memory.mem_ctrl.readPktSize::6              766                       # Read request sizes (log2) (Count)
board.memory.mem_ctrl.writePktSize::0               0                       # Write request sizes (log2) (Count)
board.memory.mem_ctrl.writePktSize::1               0                       # Write request sizes (log2) (Count)
board.memory.mem_ctrl.writePktSize::2               0                       # Write request sizes (log2) (Count)
board.memory.mem_ctrl.writePktSize::3               0                       # Write request sizes (log2) (Count)
board.memory.mem_ctrl.writePktSize::4               0                       # Write request sizes (log2) (Count)
board.memory.mem_ctrl.writePktSize::5               0                       # Write request sizes (log2) (Count)
board.memory.mem_ctrl.writePktSize::6               0                       # Write request sizes (log2) (Count)
board.memory.mem_ctrl.rdQLenPdf::0                185                       # What read queue length does an incoming req see (Count)
board.memory.mem_ctrl.rdQLenPdf::1                229                       # What read queue length does an incoming req see (Count)
board.memory.mem_ctrl.rdQLenPdf::2                273                       # What read queue length does an incoming req see (Count)
board.memory.mem_ctrl.rdQLenPdf::3                 78                       # What read queue length does an incoming req see (Count)
board.memory.mem_ctrl.rdQLenPdf::4                  1                       # What read queue length does an incoming req see (Count)
board.memory.mem_ctrl.rdQLenPdf::5                  0                       # What read queue length does an incoming req see (Count)
board.memory.mem_ctrl.rdQLenPdf::6                  0                       # What read queue length does an incoming req see (Count)
board.memory.mem_ctrl.rdQLenPdf::7                  0                       # What read queue length does an incoming req see (Count)
board.memory.mem_ctrl.rdQLenPdf::8                  0                       # What read queue length does an incoming req see (Count)
board.memory.mem_ctrl.rdQLenPdf::9                  0                       # What read queue length does an incoming req see (Count)
board.memory.mem_ctrl.rdQLenPdf::10                 0                       # What read queue length does an incoming req see (Count)
board.memory.mem_ctrl.rdQLenPdf::11                 0                       # What read queue length does an incoming req see (Count)
board.memory.mem_ctrl.rdQLenPdf::12                 0                       # What read queue length does an incoming req see (Count)
board.memory.mem_ctrl.rdQLenPdf::13                 0                       # What read queue length does an incoming req see (Count)
board.memory.mem_ctrl.rdQLenPdf::14                 0                       # What read queue length does an incoming req see (Count)
board.memory.mem_ctrl.rdQLenPdf::15                 0                       # What read queue length does an incoming req see (Count)
board.memory.mem_ctrl.rdQLenPdf::16                 0                       # What read queue length does an incoming req see (Count)
board.memory.mem_ctrl.rdQLenPdf::17                 0                       # What read queue length does an incoming req see (Count)
board.memory.mem_ctrl.rdQLenPdf::18                 0                       # What read queue length does an incoming req see (Count)
board.memory.mem_ctrl.rdQLenPdf::19                 0                       # What read queue length does an incoming req see (Count)
board.memory.mem_ctrl.rdQLenPdf::20                 0                       # What read queue length does an incoming req see (Count)
board.memory.mem_ctrl.rdQLenPdf::21                 0                       # What read queue length does an incoming req see (Count)
board.memory.mem_ctrl.rdQLenPdf::22                 0                       # What read queue length does an incoming req see (Count)
board.memory.mem_ctrl.rdQLenPdf::23                 0                       # What read queue length does an incoming req see (Count)
board.memory.mem_ctrl.rdQLenPdf::24                 0                       # What read queue length does an incoming req see (Count)
board.memory.mem_ctrl.rdQLenPdf::25                 0                       # What read queue length does an incoming req see (Count)
board.memory.mem_ctrl.rdQLenPdf::26                 0                       # What read queue length does an incoming req see (Count)
board.memory.mem_ctrl.rdQLenPdf::27                 0                       # What read queue length does an incoming req see (Count)
board.memory.mem_ctrl.rdQLenPdf::28                 0                       # What read queue length does an incoming req see (Count)
board.memory.mem_ctrl.rdQLenPdf::29                 0                       # What read queue length does an incoming req see (Count)
board.memory.mem_ctrl.rdQLenPdf::30                 0                       # What read queue length does an incoming req see (Count)
board.memory.mem_ctrl.rdQLenPdf::31                 0                       # What read queue length does an incoming req see (Count)
board.memory.mem_ctrl.wrQLenPdf::0                  0                       # What write queue length does an incoming req see (Count)
board.memory.mem_ctrl.wrQLenPdf::1                  0                       # What write queue length does an incoming req see (Count)
board.memory.mem_ctrl.wrQLenPdf::2                  0                       # What write queue length does an incoming req see (Count)
board.memory.mem_ctrl.wrQLenPdf::3                  0                       # What write queue length does an incoming req see (Count)
board.memory.mem_ctrl.wrQLenPdf::4                  0                       # What write queue length does an incoming req see (Count)
board.memory.mem_ctrl.wrQLenPdf::5                  0                       # What write queue length does an incoming req see (Count)
board.memory.mem_ctrl.wrQLenPdf::6                  0                       # What write queue length does an incoming req see (Count)
board.memory.mem_ctrl.wrQLenPdf::7                  0                       # What write queue length does an incoming req see (Count)
board.memory.mem_ctrl.wrQLenPdf::8                  0                       # What write queue length does an incoming req see (Count)
board.memory.mem_ctrl.wrQLenPdf::9                  0                       # What write queue length does an incoming req see (Count)
board.memory.mem_ctrl.wrQLenPdf::10                 0                       # What write queue length does an incoming req see (Count)
board.memory.mem_ctrl.wrQLenPdf::11                 0                       # What write queue length does an incoming req see (Count)
board.memory.mem_ctrl.wrQLenPdf::12                 0                       # What write queue length does an incoming req see (Count)
board.memory.mem_ctrl.wrQLenPdf::13                 0                       # What write queue length does an incoming req see (Count)
board.memory.mem_ctrl.wrQLenPdf::14                 0                       # What write queue length does an incoming req see (Count)
board.memory.mem_ctrl.wrQLenPdf::15                 0                       # What write queue length does an incoming req see (Count)
board.memory.mem_ctrl.wrQLenPdf::16                 0                       # What write queue length does an incoming req see (Count)
board.memory.mem_ctrl.wrQLenPdf::17                 0                       # What write queue length does an incoming req see (Count)
board.memory.mem_ctrl.wrQLenPdf::18                 0                       # What write queue length does an incoming req see (Count)
board.memory.mem_ctrl.wrQLenPdf::19                 0                       # What write queue length does an incoming req see (Count)
board.memory.mem_ctrl.wrQLenPdf::20                 0                       # What write queue length does an incoming req see (Count)
board.memory.mem_ctrl.wrQLenPdf::21                 0                       # What write queue length does an incoming req see (Count)
board.memory.mem_ctrl.wrQLenPdf::22                 0                       # What write queue length does an incoming req see (Count)
board.memory.mem_ctrl.wrQLenPdf::23                 0                       # What write queue length does an incoming req see (Count)
board.memory.mem_ctrl.wrQLenPdf::24                 0                       # What write queue length does an incoming req see (Count)
board.memory.mem_ctrl.wrQLenPdf::25                 0                       # What write queue length does an incoming req see (Count)
board.memory.mem_ctrl.wrQLenPdf::26                 0                       # What write queue length does an incoming req see (Count)
board.memory.mem_ctrl.wrQLenPdf::27                 0                       # What write queue length does an incoming req see (Count)
board.memory.mem_ctrl.wrQLenPdf::28                 0                       # What write queue length does an incoming req see (Count)
board.memory.mem_ctrl.wrQLenPdf::29                 0                       # What write queue length does an incoming req see (Count)
board.memory.mem_ctrl.wrQLenPdf::30                 0                       # What write queue length does an incoming req see (Count)
board.memory.mem_ctrl.wrQLenPdf::31                 0                       # What write queue length does an incoming req see (Count)
board.memory.mem_ctrl.wrQLenPdf::32                 0                       # What write queue length does an incoming req see (Count)
board.memory.mem_ctrl.wrQLenPdf::33                 0                       # What write queue length does an incoming req see (Count)
board.memory.mem_ctrl.wrQLenPdf::34                 0                       # What write queue length does an incoming req see (Count)
board.memory.mem_ctrl.wrQLenPdf::35                 0                       # What write queue length does an incoming req see (Count)
board.memory.mem_ctrl.wrQLenPdf::36                 0                       # What write queue length does an incoming req see (Count)
board.memory.mem_ctrl.wrQLenPdf::37                 0                       # What write queue length does an incoming req see (Count)
board.memory.mem_ctrl.wrQLenPdf::38                 0                       # What write queue length does an incoming req see (Count)
board.memory.mem_ctrl.wrQLenPdf::39                 0                       # What write queue length does an incoming req see (Count)
board.memory.mem_ctrl.wrQLenPdf::40                 0                       # What write queue length does an incoming req see (Count)
board.memory.mem_ctrl.wrQLenPdf::41                 0                       # What write queue length does an incoming req see (Count)
board.memory.mem_ctrl.wrQLenPdf::42                 0                       # What write queue length does an incoming req see (Count)
board.memory.mem_ctrl.wrQLenPdf::43                 0                       # What write queue length does an incoming req see (Count)
board.memory.mem_ctrl.wrQLenPdf::44                 0                       # What write queue length does an incoming req see (Count)
board.memory.mem_ctrl.wrQLenPdf::45                 0                       # What write queue length does an incoming req see (Count)
board.memory.mem_ctrl.wrQLenPdf::46                 0                       # What write queue length does an incoming req see (Count)
board.memory.mem_ctrl.wrQLenPdf::47                 0                       # What write queue length does an incoming req see (Count)
board.memory.mem_ctrl.wrQLenPdf::48                 0                       # What write queue length does an incoming req see (Count)
board.memory.mem_ctrl.wrQLenPdf::49                 0                       # What write queue length does an incoming req see (Count)
board.memory.mem_ctrl.wrQLenPdf::50                 0                       # What write queue length does an incoming req see (Count)
board.memory.mem_ctrl.wrQLenPdf::51                 0                       # What write queue length does an incoming req see (Count)
board.memory.mem_ctrl.wrQLenPdf::52                 0                       # What write queue length does an incoming req see (Count)
board.memory.mem_ctrl.wrQLenPdf::53                 0                       # What write queue length does an incoming req see (Count)
board.memory.mem_ctrl.wrQLenPdf::54                 0                       # What write queue length does an incoming req see (Count)
board.memory.mem_ctrl.wrQLenPdf::55                 0                       # What write queue length does an incoming req see (Count)
board.memory.mem_ctrl.wrQLenPdf::56                 0                       # What write queue length does an incoming req see (Count)
board.memory.mem_ctrl.wrQLenPdf::57                 0                       # What write queue length does an incoming req see (Count)
board.memory.mem_ctrl.wrQLenPdf::58                 0                       # What write queue length does an incoming req see (Count)
board.memory.mem_ctrl.wrQLenPdf::59                 0                       # What write queue length does an incoming req see (Count)
board.memory.mem_ctrl.wrQLenPdf::60                 0                       # What write queue length does an incoming req see (Count)
board.memory.mem_ctrl.wrQLenPdf::61                 0                       # What write queue length does an incoming req see (Count)
board.memory.mem_ctrl.wrQLenPdf::62                 0                       # What write queue length does an incoming req see (Count)
board.memory.mem_ctrl.wrQLenPdf::63                 0                       # What write queue length does an incoming req see (Count)
board.memory.mem_ctrl.bytesReadWrQ                  0                       # Total number of bytes read from write queue (Byte)
board.memory.mem_ctrl.bytesReadSys              49024                       # Total read bytes from the system interface side (Byte)
board.memory.mem_ctrl.bytesWrittenSys               0                       # Total written bytes from the system interface side (Byte)
board.memory.mem_ctrl.avgRdBWSys         4662820106.39531326                       # Average system read bandwidth in Byte/s ((Byte/Second))
board.memory.mem_ctrl.avgWrBWSys           0.00000000                       # Average system write bandwidth in Byte/s ((Byte/Second))
board.memory.mem_ctrl.totGap                 10641681                       # Total gap between requests (Tick)
board.memory.mem_ctrl.avgGap                 13892.53                       # Average gap between requests ((Tick/Count))
board.memory.mem_ctrl.requestorReadBytes::cache_hierarchy.icache.prefetcher        49024                       # Per-requestor bytes read from memory (Byte)
board.memory.mem_ctrl.requestorReadRate::cache_hierarchy.icache.prefetcher 4662820106.395313262939                       # Per-requestor bytes read from memory rate ((Byte/Second))
board.memory.mem_ctrl.requestorReadAccesses::cache_hierarchy.icache.prefetcher          766                       # Per-requestor read serviced memory accesses (Count)
board.memory.mem_ctrl.requestorReadTotalLat::cache_hierarchy.icache.prefetcher     18263776                       # Per-requestor read total memory access latency (Tick)
board.memory.mem_ctrl.requestorReadAvgLat::cache_hierarchy.icache.prefetcher     23843.05                       # Per-requestor read average memory access latency ((Tick/Count))
board.memory.mem_ctrl.dram.bytesRead::cache_hierarchy.icache.prefetcher        49024                       # Number of bytes read from this memory (Byte)
board.memory.mem_ctrl.dram.bytesRead::total        49024                       # Number of bytes read from this memory (Byte)
board.memory.mem_ctrl.dram.bytesInstRead::cache_hierarchy.icache.prefetcher        49024                       # Number of instructions bytes read from this memory (Byte)
board.memory.mem_ctrl.dram.bytesInstRead::total        49024                       # Number of instructions bytes read from this memory (Byte)
board.memory.mem_ctrl.dram.numReads::cache_hierarchy.icache.prefetcher          766                       # Number of read requests responded to by this memory (Count)
board.memory.mem_ctrl.dram.numReads::total          766                       # Number of read requests responded to by this memory (Count)
board.memory.mem_ctrl.dram.bwRead::cache_hierarchy.icache.prefetcher   4662820106                       # Total read bandwidth from this memory ((Byte/Second))
board.memory.mem_ctrl.dram.bwRead::total   4662820106                       # Total read bandwidth from this memory ((Byte/Second))
board.memory.mem_ctrl.dram.bwInstRead::cache_hierarchy.icache.prefetcher   4662820106                       # Instruction read bandwidth from this memory ((Byte/Second))
board.memory.mem_ctrl.dram.bwInstRead::total   4662820106                       # Instruction read bandwidth from this memory ((Byte/Second))
board.memory.mem_ctrl.dram.bwTotal::cache_hierarchy.icache.prefetcher   4662820106                       # Total bandwidth to/from this memory ((Byte/Second))
board.memory.mem_ctrl.dram.bwTotal::total   4662820106                       # Total bandwidth to/from this memory ((Byte/Second))
board.memory.mem_ctrl.dram.readBursts             766                       # Number of DRAM read bursts (Count)
board.memory.mem_ctrl.dram.writeBursts              0                       # Number of DRAM write bursts (Count)
board.memory.mem_ctrl.dram.perBankRdBursts::0           96                       # Per bank write bursts (Count)
board.memory.mem_ctrl.dram.perBankRdBursts::1          128                       # Per bank write bursts (Count)
board.memory.mem_ctrl.dram.perBankRdBursts::2          128                       # Per bank write bursts (Count)
board.memory.mem_ctrl.dram.perBankRdBursts::3          128                       # Per bank write bursts (Count)
board.memory.mem_ctrl.dram.perBankRdBursts::4          128                       # Per bank write bursts (Count)
board.memory.mem_ctrl.dram.perBankRdBursts::5          128                       # Per bank write bursts (Count)
board.memory.mem_ctrl.dram.perBankRdBursts::6           30                       # Per bank write bursts (Count)
board.memory.mem_ctrl.dram.perBankRdBursts::7            0                       # Per bank write bursts (Count)
board.memory.mem_ctrl.dram.perBankRdBursts::8            0                       # Per bank write bursts (Count)
board.memory.mem_ctrl.dram.perBankRdBursts::9            0                       # Per bank write bursts (Count)
board.memory.mem_ctrl.dram.perBankRdBursts::10            0                       # Per bank write bursts (Count)
board.memory.mem_ctrl.dram.perBankRdBursts::11            0                       # Per bank write bursts (Count)
board.memory.mem_ctrl.dram.perBankRdBursts::12            0                       # Per bank write bursts (Count)
board.memory.mem_ctrl.dram.perBankRdBursts::13            0                       # Per bank write bursts (Count)
board.memory.mem_ctrl.dram.perBankRdBursts::14            0                       # Per bank write bursts (Count)
board.memory.mem_ctrl.dram.perBankRdBursts::15            0                       # Per bank write bursts (Count)
board.memory.mem_ctrl.dram.perBankWrBursts::0            0                       # Per bank write bursts (Count)
board.memory.mem_ctrl.dram.perBankWrBursts::1            0                       # Per bank write bursts (Count)
board.memory.mem_ctrl.dram.perBankWrBursts::2            0                       # Per bank write bursts (Count)
board.memory.mem_ctrl.dram.perBankWrBursts::3            0                       # Per bank write bursts (Count)
board.memory.mem_ctrl.dram.perBankWrBursts::4            0                       # Per bank write bursts (Count)
board.memory.mem_ctrl.dram.perBankWrBursts::5            0                       # Per bank write bursts (Count)
board.memory.mem_ctrl.dram.perBankWrBursts::6            0                       # Per bank write bursts (Count)
board.memory.mem_ctrl.dram.perBankWrBursts::7            0                       # Per bank write bursts (Count)
board.memory.mem_ctrl.dram.perBankWrBursts::8            0                       # Per bank write bursts (Count)
board.memory.mem_ctrl.dram.perBankWrBursts::9            0                       # Per bank write bursts (Count)
board.memory.mem_ctrl.dram.perBankWrBursts::10            0                       # Per bank write bursts (Count)
board.memory.mem_ctrl.dram.perBankWrBursts::11            0                       # Per bank write bursts (Count)
[...]
board.processor.cores.core.lsq0.forwLoads            1                       # Number of loads that had data forwarded from stores (Count)
board.processor.cores.core.lsq0.squashedLoads           88                       # Number of loads squashed (Count)
board.processor.cores.core.lsq0.ignoredResponses            0                       # Number of memory responses ignored because the instruction is squashed (Count)
board.processor.cores.core.lsq0.memOrderViolation            1                       # Number of memory ordering violations (Count)
board.processor.cores.core.lsq0.squashedStores           64                       # Number of stores squashed (Count)
board.processor.cores.core.lsq0.rescheduledLoads            2                       # Number of loads that were rescheduled (Count)
board.processor.cores.core.lsq0.blockedByCache            0                       # Number of times an access to memory failed due to the cache being blocked (Count)
board.processor.cores.core.lsq0.loadToUse::samples         2156                       # Distribution of cycle latency between the first time a load is issued and its completion (Unspecified)
board.processor.cores.core.lsq0.loadToUse::mean     2.853432                       # Distribution of cycle latency between the first time a load is issued and its completion (Unspecified)
board.processor.cores.core.lsq0.loadToUse::stdev    18.815624                       # Distribution of cycle latency between the first time a load is issued and its completion (Unspecified)
board.processor.cores.core.lsq0.loadToUse::0-9         2148     99.63%     99.63% # Distribution of cycle latency between the first time a load is issued and its completion (Unspecified)
board.processor.cores.core.lsq0.loadToUse::30-39            1      0.05%     99.68% # Distribution of cycle latency between the first time a load is issued and its completion (Unspecified)
board.processor.cores.core.lsq0.loadToUse::140-149            2      0.09%     99.77% # Distribution of cycle latency between the first time a load is issued and its completion (Unspecified)
board.processor.cores.core.lsq0.loadToUse::150-159            1      0.05%     99.81% # Distribution of cycle latency between the first time a load is issued and its completion (Unspecified)
board.processor.cores.core.lsq0.loadToUse::170-179            1      0.05%     99.86% # Distribution of cycle latency between the first time a load is issued and its completion (Unspecified)
board.processor.cores.core.lsq0.loadToUse::180-189            1      0.05%     99.91% # Distribution of cycle latency between the first time a load is issued and its completion (Unspecified)
board.processor.cores.core.lsq0.loadToUse::220-229            1      0.05%     99.95% # Distribution of cycle latency between the first time a load is issued and its completion (Unspecified)
board.processor.cores.core.lsq0.loadToUse::overflows            1      0.05%    100.00% # Distribution of cycle latency between the first time a load is issued and its completion (Unspecified)
board.processor.cores.core.lsq0.loadToUse::min_value            2                       # Distribution of cycle latency between the first time a load is issued and its completion (Unspecified)
board.processor.cores.core.lsq0.loadToUse::max_value          769                       # Distribution of cycle latency between the first time a load is issued and its completion (Unspecified)
board.processor.cores.core.lsq0.loadToUse::total         2156                       # Distribution of cycle latency between the first time a load is issued and its completion (Unspecified)
board.processor.cores.core.mmu.alignFaults            0                       # Number of MMU faults due to alignment restrictions (Count)
board.processor.cores.core.mmu.prefetchFaults            0                       # Number of MMU faults due to prefetch (Count)
board.processor.cores.core.mmu.domainFaults            0                       # Number of MMU faults due to domain restrictions (Count)
board.processor.cores.core.mmu.permsFaults            0                       # Number of MMU faults due to permissions restrictions (Count)
board.processor.cores.core.mmu.dtb.readHits            0                       # Read hits (Count)
board.processor.cores.core.mmu.dtb.readMisses            0                       # Read misses (Count)
board.processor.cores.core.mmu.dtb.writeHits            0                       # Write hits (Count)
board.processor.cores.core.mmu.dtb.writeMisses            0                       # Write misses (Count)
board.processor.cores.core.mmu.dtb.inserts            0                       # Number of times an entry is inserted into the TLB (Count)
board.processor.cores.core.mmu.dtb.flushTlb            0                       # Number of times a TLB invalidation was requested (Count)
board.processor.cores.core.mmu.dtb.flushedEntries            0                       # Number of entries that have been flushed from TLB (Count)
board.processor.cores.core.mmu.dtb.readAccesses            0                       # Read accesses (Count)
board.processor.cores.core.mmu.dtb.writeAccesses            0                       # Write accesses (Count)
board.processor.cores.core.mmu.dtb.hits             0                       # Total TLB (inst and data) hits (Count)
board.processor.cores.core.mmu.dtb.misses            0                       # Total TLB (inst and data) misses (Count)
board.processor.cores.core.mmu.dtb.accesses            0                       # Total TLB (inst and data) accesses (Count)
board.processor.cores.core.mmu.dtb_walker.walks            0                       # Table walker walks requested (Count)
board.processor.cores.core.mmu.dtb_walker.requestOrigin_Requested::Data            0                       # Table walker requests started/completed, data/inst (Count)
board.processor.cores.core.mmu.dtb_walker.requestOrigin_Requested::Inst            0                       # Table walker requests started/completed, data/inst (Count)
board.processor.cores.core.mmu.dtb_walker.requestOrigin_Requested::total            0                       # Table walker requests started/completed, data/inst (Count)
board.processor.cores.core.mmu.dtb_walker.requestOrigin_Completed::Data            0                       # Table walker requests started/completed, data/inst (Count)
board.processor.cores.core.mmu.dtb_walker.requestOrigin_Completed::Inst            0                       # Table walker requests started/completed, data/inst (Count)
board.processor.cores.core.mmu.dtb_walker.requestOrigin_Completed::total            0                       # Table walker requests started/completed, data/inst (Count)
board.processor.cores.core.mmu.dtb_walker.requestOrigin::total            0                       # Table walker requests started/completed, data/inst (Count)
board.processor.cores.core.mmu.dtb_walker.power_state.pwrStateResidencyTicks::UNDEFINED      4559769                       # Cumulative time (in ticks) in various power states (Tick)
board.processor.cores.core.mmu.itb.instHits            0                       # Inst hits (Count)
board.processor.cores.core.mmu.itb.instMisses            0                       # Inst misses (Count)
board.processor.cores.core.mmu.itb.inserts            0                       # Number of times an entry is inserted into the TLB (Count)
board.processor.cores.core.mmu.itb.flushTlb            0                       # Number of times a TLB invalidation was requested (Count)
board.processor.cores.core.mmu.itb.flushedEntries            0                       # Number of entries that have been flushed from TLB (Count)
board.processor.cores.core.mmu.itb.instAccesses            0                       # Inst accesses (Count)
board.processor.cores.core.mmu.itb.hits             0                       # Total TLB (inst and data) hits (Count)
board.processor.cores.core.mmu.itb.misses            0                       # Total TLB (inst and data) misses (Count)
board.processor.cores.core.mmu.itb.accesses            0                       # Total TLB (inst and data) accesses (Count)
board.processor.cores.core.mmu.itb_walker.walks            0                       # Table walker walks requested (Count)
board.processor.cores.core.mmu.itb_walker.requestOrigin_Requested::Data            0                       # Table walker requests started/completed, data/inst (Count)
board.processor.cores.core.mmu.itb_walker.requestOrigin_Requested::Inst            0                       # Table walker requests started/completed, data/inst (Count)
board.processor.cores.core.mmu.itb_walker.requestOrigin_Requested::total            0                       # Table walker requests started/completed, data/inst (Count)
board.processor.cores.core.mmu.itb_walker.requestOrigin_Completed::Data            0                       # Table walker requests started/completed, data/inst (Count)
board.processor.cores.core.mmu.itb_walker.requestOrigin_Completed::Inst            0                       # Table walker requests started/completed, data/inst (Count)
board.processor.cores.core.mmu.itb_walker.requestOrigin_Completed::total            0                       # Table walker requests started/completed, data/inst (Count)
board.processor.cores.core.mmu.itb_walker.requestOrigin::total            0                       # Table walker requests started/completed, data/inst (Count)
board.processor.cores.core.mmu.itb_walker.power_state.pwrStateResidencyTicks::UNDEFINED      4559769                       # Cumulative time (in ticks) in various power states (Tick)
board.processor.cores.core.mmu.l2_shared.instHits            0                       # Inst hits (Count)
board.processor.cores.core.mmu.l2_shared.instMisses            0                       # Inst misses (Count)
board.processor.cores.core.mmu.l2_shared.inserts            0                       # Number of times an entry is inserted into the TLB (Count)
board.processor.cores.core.mmu.l2_shared.flushTlb            0                       # Number of times a TLB invalidation was requested (Count)
board.processor.cores.core.mmu.l2_shared.flushedEntries            0                       # Number of entries that have been flushed from TLB (Count)
board.processor.cores.core.mmu.l2_shared.instAccesses            0                       # Inst accesses (Count)
board.processor.cores.core.mmu.l2_shared.hits            0                       # Total TLB (inst and data) hits (Count)
board.processor.cores.core.mmu.l2_shared.misses            0                       # Total TLB (inst and data) misses (Count)
board.processor.cores.core.mmu.l2_shared.accesses            0                       # Total TLB (inst and data) accesses (Count)
board.processor.cores.core.mmu.stage2_dtb.readHits            0                       # Read hits (Count)
board.processor.cores.core.mmu.stage2_dtb.readMisses            0                       # Read misses (Count)
board.processor.cores.core.mmu.stage2_dtb.writeHits            0                       # Write hits (Count)
board.processor.cores.core.mmu.stage2_dtb.writeMisses            0                       # Write misses (Count)
board.processor.cores.core.mmu.stage2_dtb.inserts            0                       # Number of times an entry is inserted into the TLB (Count)
board.processor.cores.core.mmu.stage2_dtb.flushTlb            0                       # Number of times a TLB invalidation was requested (Count)
board.processor.cores.core.mmu.stage2_dtb.flushedEntries            0                       # Number of entries that have been flushed from TLB (Count)
board.processor.cores.core.mmu.stage2_dtb.readAccesses            0                       # Read accesses (Count)
board.processor.cores.core.mmu.stage2_dtb.writeAccesses            0                       # Write accesses (Count)
board.processor.cores.core.mmu.stage2_dtb.hits            0                       # Total TLB (inst and data) hits (Count)
board.processor.cores.core.mmu.stage2_dtb.misses            0                       # Total TLB (inst and data) misses (Count)
board.processor.cores.core.mmu.stage2_dtb.accesses            0                       # Total TLB (inst and data) accesses (Count)
board.processor.cores.core.mmu.stage2_dtb_walker.walks            0                       # Table walker walks requested (Count)
board.processor.cores.core.mmu.stage2_dtb_walker.requestOrigin_Requested::Data            0                       # Table walker requests started/completed, data/inst (Count)
board.processor.cores.core.mmu.stage2_dtb_walker.requestOrigin_Requested::Inst            0                       # Table walker requests started/completed, data/inst (Count)
board.processor.cores.core.mmu.stage2_dtb_walker.requestOrigin_Requested::total            0                       # Table walker requests started/completed, data/inst (Count)
board.processor.cores.core.mmu.stage2_dtb_walker.requestOrigin_Completed::Data            0                       # Table walker requests started/completed, data/inst (Count)
board.processor.cores.core.mmu.stage2_dtb_walker.requestOrigin_Completed::Inst            0                       # Table walker requests started/completed, data/inst (Count)
board.processor.cores.core.mmu.stage2_dtb_walker.requestOrigin_Completed::total            0                       # Table walker requests started/completed, data/inst (Count)
board.processor.cores.core.mmu.stage2_dtb_walker.requestOrigin::total            0                       # Table walker requests started/completed, data/inst (Count)
board.processor.cores.core.mmu.stage2_dtb_walker.power_state.pwrStateResidencyTicks::UNDEFINED      4559769                       # Cumulative time (in ticks) in various power states (Tick)
board.processor.cores.core.mmu.stage2_itb.instHits            0                       # Inst hits (Count)
board.processor.cores.core.mmu.stage2_itb.instMisses            0                       # Inst misses (Count)
board.processor.cores.core.mmu.stage2_itb.inserts            0                       # Number of times an entry is inserted into the TLB (Count)
board.processor.cores.core.mmu.stage2_itb.flushTlb            0                       # Number of times a TLB invalidation was requested (Count)
board.processor.cores.core.mmu.stage2_itb.flushedEntries            0                       # Number of entries that have been flushed from TLB (Count)
board.processor.cores.core.mmu.stage2_itb.instAccesses            0                       # Inst accesses (Count)
board.processor.cores.core.mmu.stage2_itb.hits            0                       # Total TLB (inst and data) hits (Count)
board.processor.cores.core.mmu.stage2_itb.misses            0                       # Total TLB (inst and data) misses (Count)
board.processor.cores.core.mmu.stage2_itb.accesses            0                       # Total TLB (inst and data) accesses (Count)
board.processor.cores.core.mmu.stage2_itb_walker.walks            0                       # Table walker walks requested (Count)
board.processor.cores.core.mmu.stage2_itb_walker.requestOrigin_Requested::Data            0                       # Table walker requests started/completed, data/inst (Count)
board.processor.cores.core.mmu.stage2_itb_walker.requestOrigin_Requested::Inst            0                       # Table walker requests started/completed, data/inst (Count)
board.processor.cores.core.mmu.stage2_itb_walker.requestOrigin_Requested::total            0                       # Table walker requests started/completed, data/inst (Count)
board.processor.cores.core.mmu.stage2_itb_walker.requestOrigin_Completed::Data            0                       # Table walker requests started/completed, data/inst (Count)
board.processor.cores.core.mmu.stage2_itb_walker.requestOrigin_Completed::Inst            0                       # Table walker requests started/completed, data/inst (Count)
board.processor.cores.core.mmu.stage2_itb_walker.requestOrigin_Completed::total            0                       # Table walker requests started/completed, data/inst (Count)
board.processor.cores.core.mmu.stage2_itb_walker.requestOrigin::total            0                       # Table walker requests started/completed, data/inst (Count)
board.processor.cores.core.mmu.stage2_itb_walker.power_state.pwrStateResidencyTicks::UNDEFINED      4559769                       # Cumulative time (in ticks) in various power states (Tick)
board.processor.cores.core.power_state.pwrStateResidencyTicks::ON      4559769                       # Cumulative time (in ticks) in various power states (Tick)
board.processor.cores.core.rename.squashCycles           61                       # Number of cycles rename is squashing (Cycle)
board.processor.cores.core.rename.idleCycles         7675                       # Number of cycles rename is idle (Cycle)
board.processor.cores.core.rename.blockCycles          157                       # Number of cycles rename is blocking (Cycle)
board.processor.cores.core.rename.serializeStallCycles          275                       # count of cycles rename stalled for serializing inst (Cycle)
board.processor.cores.core.rename.runCycles         3477                       # Number of cycles rename is running (Cycle)
board.processor.cores.core.rename.unblockCycles           13                       # Number of cycles rename is unblocking (Cycle)
board.processor.cores.core.rename.renamedInsts         7380                       # Number of instructions processed by rename (Count)
board.processor.cores.core.rename.IQFullEvents            4                       # Number of times rename has blocked due to IQ full (Count)
board.processor.cores.core.rename.renamedOperands        11304                       # Number of destination operands rename has renamed (Count)
board.processor.cores.core.rename.lookups        11762                       # Number of register rename lookups that rename has made (Count)
board.processor.cores.core.rename.intLookups         5303                       # Number of integer rename lookups (Count)
board.processor.cores.core.rename.vecLookups            2                       # Number of vector rename lookups (Count)
board.processor.cores.core.rename.committedMaps        10750                       # Number of HB maps that are committed (Count)
board.processor.cores.core.rename.undoneMaps          565                       # Number of HB maps that are undone due to squashing (Count)
board.processor.cores.core.rename.serializing           29                       # count of serializing insts renamed (Count)
board.processor.cores.core.rename.tempSerializing            8                       # count of temporary serializing insts renamed (Count)
board.processor.cores.core.rename.skidInsts          162                       # count of insts added to the skid buffer (Count)
board.processor.cores.core.rob.reads            18766                       # The number of ROB reads (Count)
board.processor.cores.core.rob.writes           14527                       # The number of ROB writes (Count)
board.processor.cores.core.thread_0.numInsts         6648                       # Number of Instructions committed (Count)
board.processor.cores.core.thread_0.numOps         6736                       # Number of Ops committed (Count)
board.processor.cores.core.thread_0.numMemRefs            0                       # Number of Memory References (Count)
board.processor.cores.core.workload.numSyscalls            1                       # Number of system calls (Count)
board.workload.inst.arm                             0                       # number of arm instructions executed (Count)
board.workload.inst.quiesce                         0                       # number of quiesce instructions executed (Count)

---------- End Simulation Statistics   ----------
