
---------- Begin Simulation Statistics ----------
simSeconds                                   0.000014                       # Number of seconds simulated (Second)
simTicks                                     14439879                       # Number of ticks simulated (Tick)
finalTick                                    31192776                       # Number of ticks from beginning of simulation (restored from checkpoints and never reset) (Tick)
simFreq                                  1000000000000                       # The number of ticks per simulated second ((Tick/Second))
hostSeconds                                      0.15                       # Real time elapsed on the host (Second)
hostTickRate                                 96036438                       # The number of ticks simulated per host second (ticks/s) ((Tick/Second))
hostMemory                                     201476                       # Number of bytes of host memory used (Byte)
simInsts                                        35083                       # Number of instructions simulated (Count)
simOps                                          36330                       # Number of ops (including micro ops) simulated (Count)
hostInstRate                                   233110                       # Simulator instruction rate (inst/s) ((Count/Second))
hostOpRate                                     241386                       # Simulator op (including micro ops) rate (op/s) ((Count/Second))
board.cache_hierarchy.dcache.demandHits::processor.cores.core.data         9884                       # number of demand (read+write) hits (Count)
board.cache_hierarchy.dcache.demandHits::total         9884                       # number of demand (read+write) hits (Count)
board.cache_hierarchy.dcache.overallHits::processor.cores.core.data         9884                       # number of overall hits (Count)
board.cache_hierarchy.dcache.overallHits::total         9884                       # number of overall hits (Count)
board.cache_hierarchy.dcache.demandAccesses::processor.cores.core.data         9884                       # number of demand (read+write) accesses (Count)
board.cache_hierarchy.dcache.demandAccesses::total         9884                       # number of demand (read+write) accesses (Count)
board.cache_hierarchy.dcache.overallAccesses::processor.cores.core.data         9884                       # number of overall (read+write) accesses (Count)
board.cache_hierarchy.dcache.overallAccesses::total         9884                       # number of overall (read+write) accesses (Count)
board.cache_hierarchy.dcache.blockedCycles::no_mshrs            0                       # number of cycles access was blocked (Cycle)
board.cache_hierarchy.dcache.blockedCycles::no_targets            0                       # number of cycles access was blocked (Cycle)
board.cache_hierarchy.dcache.blockedCauses::no_mshrs            0                       # number of times access was blocked (Count)
board.cache_hierarchy.dcache.blockedCauses::no_targets            0                       # number of times access was blocked (Count)
board.cache_hierarchy.dcache.avgBlocked::no_mshrs          nan                       # average number of cycles each access was blocked ((Cycle/Count))
board.cache_hierarchy.dcache.avgBlocked::no_targets          nan                       # average number of cycles each access was blocked ((Cycle/Count))
board.cache_hierarchy.dcache.replacements            0                       # number of replacements (Count)
board.cache_hierarchy.dcache.ReadReq.hits::processor.cores.core.data         9884                       # number of ReadReq hits (Count)
board.cache_hierarchy.dcache.ReadReq.hits::total         9884                       # number of ReadReq hits (Count)
board.cache_hierarchy.dcache.ReadReq.accesses::processor.cores.core.data         9884                       # number of ReadReq accesses(hits+misses) (Count)
board.cache_hierarchy.dcache.ReadReq.accesses::total         9884                       # number of ReadReq accesses(hits+misses) (Count)
board.cache_hierarchy.dcache.power_state.pwrStateResidencyTicks::UNDEFINED     31192776                       # Cumulative time (in ticks) in various power states (Tick)
board.cache_hierarchy.dcache.prefetcher.demandMshrMisses            0                       # demands not covered by prefetchs (Count)
board.cache_hierarchy.dcache.prefetcher.pfIssued            0                       # number of hwpf issued (Count)
board.cache_hierarchy.dcache.prefetcher.pfUseful            0                       # number of useful prefetch (Count)
board.cache_hierarchy.dcache.prefetcher.pfUsefulButMiss            0                       # number of hit on prefetch but cache block is not in an usable state (Count)
board.cache_hierarchy.dcache.prefetcher.accuracy          nan                       # accuracy of the prefetcher (Count)
board.cache_hierarchy.dcache.prefetcher.coverage          nan                       # coverage brought by this prefetcher (Count)
board.cache_hierarchy.dcache.prefetcher.pfHitInCache            0                       # number of prefetches hitting in cache (Count)
board.cache_hierarchy.dcache.prefetcher.pfHitInMSHR            0                       # number of prefetches hitting in a MSHR (Count)
board.cache_hierarchy.dcache.prefetcher.pfHitInWB            0                       # number of prefetches hit in the Write Buffer (Count)
board.cache_hierarchy.dcache.prefetcher.pfLate            0                       # number of late prefetches (hitting in cache, MSHR or WB) (Count)
board.cache_hierarchy.dcache.prefetcher.pfIdentified            0                       # number of prefetch candidates identified (Count)
board.cache_hierarchy.dcache.prefetcher.pfBufferHit            0                       # number of redundant prefetches already in prefetch queue (Count)
board.cache_hierarchy.dcache.prefetcher.pfInCache            0                       # number of redundant prefetches already in cache/mshr dropped (Count)
board.cache_hierarchy.dcache.prefetcher.pfRemovedDemand            0                       # number of prefetches dropped due to a demand for the same address (Count)
board.cache_hierarchy.dcache.prefetcher.pfRemovedFull            0                       # number of prefetches dropped due to prefetch queue size (Count)
board.cache_hierarchy.dcache.prefetcher.pfSpanPage            0                       # number of prefetches that crossed the page (Count)
board.cache_hierarchy.dcache.prefetcher.pfUsefulSpanPage            0                       # number of prefetches that is useful and crossed the page (Count)
board.cache_hierarchy.dcache.prefetcher.power_state.pwrStateResidencyTicks::UNDEFINED     31192776                       # Cumulative time (in ticks) in various power states (Tick)
board.cache_hierarchy.dcache.tags.tagsInUse          370                       # Average ticks per tags in use ((Tick/Count))
board.cache_hierarchy.dcache.tags.totalRefs            0                       # Total number of references to valid blocks. (Count)
board.cache_hierarchy.dcache.tags.sampledRefs            0                       # Sample count of references to valid blocks. (Count)
board.cache_hierarchy.dcache.tags.avgRefs          nan                       # Average number of references to valid blocks. ((Count/Count))
board.cache_hierarchy.dcache.tags.warmupTick            0                       # The tick when the warmup percentage was hit. (Tick)
board.cache_hierarchy.dcache.tags.occupancies::cache_hierarchy.dcache.prefetcher          154                       # Average occupied blocks per tick, per requestor ((Count/Tick))
board.cache_hierarchy.dcache.tags.occupancies::processor.cores.core.data          216                       # Average occupied blocks per tick, per requestor ((Count/Tick))
board.cache_hierarchy.dcache.tags.avgOccs::cache_hierarchy.dcache.prefetcher     0.300781                       # Average percentage of cache occupancy ((Ratio/Tick))
board.cache_hierarchy.dcache.tags.avgOccs::processor.cores.core.data     0.421875                       # Average percentage of cache occupancy ((Ratio/Tick))
board.cache_hierarchy.dcache.tags.avgOccs::total     0.722656                       # Average percentage of cache occupancy ((Ratio/Tick))
board.cache_hierarchy.dcache.tags.occupanciesTaskId::1022          154                       # Occupied blocks per task id (Count)
board.cache_hierarchy.dcache.tags.occupanciesTaskId::1024          216                       # Occupied blocks per task id (Count)
board.cache_hierarchy.dcache.tags.ageTaskId_1022::1          154                       # Occupied blocks per task id, per block age (Count)
board.cache_hierarchy.dcache.tags.ageTaskId_1024::1          216                       # Occupied blocks per task id, per block age (Count)
board.cache_hierarchy.dcache.tags.ratioOccsTaskId::1022     0.300781                       # Ratio of occupied blocks and all blocks, per task id (Ratio)
board.cache_hierarchy.dcache.tags.ratioOccsTaskId::1024     0.421875                       # Ratio of occupied blocks and all blocks, per task id (Ratio)
board.cache_hierarchy.dcache.tags.tagAccesses        79072                       # Number of tag accesses (Count)
board.cache_hierarchy.dcache.tags.dataAccesses        79072                       # Number of data accesses (Count)
board.cache_hierarchy.dcache.tags.power_state.pwrStateResidencyTicks::UNDEFINED     31192776                       # Cumulative time (in ticks) in various power states (Tick)
board.cache_hierarchy.icache.demandHits::processor.cores.core.inst        14759                       # number of demand (read+write) hits (Count)
board.cache_hierarchy.icache.demandHits::total        14759                       # number of demand (read+write) hits (Count)
board.cache_hierarchy.icache.overallHits::processor.cores.core.inst        14759                       # number of overall hits (Count)
board.cache_hierarchy.icache.overallHits::total        14759                       # number of overall hits (Count)
board.cache_hierarchy.icache.demandMisses::processor.cores.core.inst         1517                       # number of demand (read+write) misses (Count)
board.cache_hierarchy.icache.demandMisses::total         1517                       # number of demand (read+write) misses (Count)
board.cache_hierarchy.icache.overallMisses::processor.cores.core.inst         1517                       # number of overall misses (Count)
board.cache_hierarchy.icache.overallMisses::total         1517                       # number of overall misses (Count)
board.cache_hierarchy.icache.demandMissLatency::processor.cores.core.inst     42972651                       # number of demand (read+write) miss ticks (Tick)
board.cache_hierarchy.icache.demandMissLatency::total     42972651                       # number of demand (read+write) miss ticks (Tick)
board.cache_hierarchy.icache.overallMissLatency::processor.cores.core.inst     42972651                       # number of overall miss ticks (Tick)
board.cache_hierarchy.icache.overallMissLatency::total     42972651                       # number of overall miss ticks (Tick)
board.cache_hierarchy.icache.demandAccesses::processor.cores.core.inst        16276                       # number of demand (read+write) accesses (Count)
board.cache_hierarchy.icache.demandAccesses::total        16276                       # number of demand (read+write) accesses (Count)
board.cache_hierarchy.icache.overallAccesses::processor.cores.core.inst        16276                       # number of overall (read+write) accesses (Count)
board.cache_hierarchy.icache.overallAccesses::total        16276                       # number of overall (read+write) accesses (Count)
board.cache_hierarchy.icache.demandMissRate::processor.cores.core.inst     0.093205                       # miss rate for demand accesses (Ratio)
board.cache_hierarchy.icache.demandMissRate::total     0.093205                       # miss rate for demand accesses (Ratio)
board.cache_hierarchy.icache.overallMissRate::processor.cores.core.inst     0.093205                       # miss rate for overall accesses (Ratio)
board.cache_hierarchy.icache.overallMissRate::total     0.093205                       # miss rate for overall accesses (Ratio)
board.cache_hierarchy.icache.demandAvgMissLatency::processor.cores.core.inst 28327.390244                       # average overall miss latency in ticks ((Tick/Count))
board.cache_hierarchy.icache.demandAvgMissLatency::total 28327.390244                       # average overall miss latency in ticks ((Tick/Count))
board.cache_hierarchy.icache.overallAvgMissLatency::processor.cores.core.inst 28327.390244                       # average overall miss latency ((Tick/Count))
board.cache_hierarchy.icache.overallAvgMissLatency::total 28327.390244                       # average overall miss latency ((Tick/Count))
board.cache_hierarchy.icache.blockedCycles::no_mshrs            0                       # number of cycles access was blocked (Cycle)
board.cache_hierarchy.icache.blockedCycles::no_targets            0                       # number of cycles access was blocked (Cycle)
board.cache_hierarchy.icache.blockedCauses::no_mshrs            0                       # number of times access was blocked (Count)
board.cache_hierarchy.icache.blockedCauses::no_targets            0                       # number of times access was blocked (Count)
board.cache_hierarchy.icache.avgBlocked::no_mshrs          nan                       # average number of cycles each access was blocked ((Cycle/Count))
board.cache_hierarchy.icache.avgBlocked::no_targets          nan                       # average number of cycles each access was blocked ((Cycle/Count))
board.cache_hierarchy.icache.writebacks::writebacks          770                       # number of writebacks (Count)
board.cache_hierarchy.icache.writebacks::total          770                       # number of writebacks (Count)
board.cache_hierarchy.icache.demandMshrHits::processor.cores.core.inst         1517                       # number of demand (read+write) MSHR hits (Count)
board.cache_hierarchy.icache.demandMshrHits::total         1517                       # number of demand (read+write) MSHR hits (Count)
board.cache_hierarchy.icache.overallMshrHits::processor.cores.core.inst         1517                       # number of overall MSHR hits (Count)
board.cache_hierarchy.icache.overallMshrHits::total         1517                       # number of overall MSHR hits (Count)
board.cache_hierarchy.icache.overallMshrMisses::cache_hierarchy.icache.prefetcher          770                       # number of overall MSHR misses (Count)
board.cache_hierarchy.icache.overallMshrMisses::total          770                       # number of overall MSHR misses (Count)
board.cache_hierarchy.icache.overallMshrMissLatency::cache_hierarchy.icache.prefetcher     54862589                       # number of overall MSHR miss ticks (Tick)
board.cache_hierarchy.icache.overallMshrMissLatency::total     54862589                       # number of overall MSHR miss ticks (Tick)
board.cache_hierarchy.icache.overallMshrMissRate::cache_hierarchy.icache.prefetcher          inf                       # mshr miss ratio for overall accesses (Ratio)
board.cache_hierarchy.icache.overallMshrMissRate::total     0.047309                       # mshr miss ratio for overall accesses (Ratio)
board.cache_hierarchy.icache.overallAvgMshrMissLatency::cache_hierarchy.icache.prefetcher 71250.115584                       # average overall mshr miss latency ((Tick/Count))
board.cache_hierarchy.icache.overallAvgMshrMissLatency::total 71250.115584                       # average overall mshr miss latency ((Tick/Count))
board.cache_hierarchy.icache.replacements          770                       # number of replacements (Count)
board.cache_hierarchy.icache.HardPFReq.mshrMisses::cache_hierarchy.icache.prefetcher          770                       # number of HardPFReq MSHR misses (Count)
board.cache_hierarchy.icache.HardPFReq.mshrMisses::total          770                       # number of HardPFReq MSHR misses (Count)
board.cache_hierarchy.icache.HardPFReq.mshrMissLatency::cache_hierarchy.icache.prefetcher     54862589                       # number of HardPFReq MSHR miss ticks (Tick)
board.cache_hierarchy.icache.HardPFReq.mshrMissLatency::total     54862589                       # number of HardPFReq MSHR miss ticks (Tick)
board.cache_hierarchy.icache.HardPFReq.mshrMissRate::cache_hierarchy.icache.prefetcher          inf                       # mshr miss rate for HardPFReq accesses (Ratio)
board.cache_hierarchy.icache.HardPFReq.mshrMissRate::total          inf                       # mshr miss rate for HardPFReq accesses (Ratio)
board.cache_hierarchy.icache.HardPFReq.avgMshrMissLatency::cache_hierarchy.icache.prefetcher 71250.115584                       # average HardPFReq mshr miss latency ((Tick/Count))
board.cache_hierarchy.icache.HardPFReq.avgMshrMissLatency::total 71250.115584                       # average HardPFReq mshr miss latency ((Tick/Count))
board.cache_hierarchy.icache.ReadReq.hits::processor.cores.core.inst        14759                       # number of ReadReq hits (Count)
board.cache_hierarchy.icache.ReadReq.hits::total        14759                       # number of ReadReq hits (Count)
board.cache_hierarchy.icache.ReadReq.misses::processor.cores.core.inst         1517                       # number of ReadReq misses (Count)
board.cache_hierarchy.icache.ReadReq.misses::total         1517                       # number of ReadReq misses (Count)
board.cache_hierarchy.icache.ReadReq.missLatency::processor.cores.core.inst     42972651                       # number of ReadReq miss ticks (Tick)
board.cache_hierarchy.icache.ReadReq.missLatency::total     42972651                       # number of ReadReq miss ticks (Tick)
board.cache_hierarchy.icache.ReadReq.accesses::processor.cores.core.inst        16276                       # number of ReadReq accesses(hits+misses) (Count)
board.cache_hierarchy.icache.ReadReq.accesses::total        16276                       # number of ReadReq accesses(hits+misses) (Count)
board.cache_hierarchy.icache.ReadReq.missRate::processor.cores.core.inst     0.093205                       # miss rate for ReadReq accesses (Ratio)
board.cache_hierarchy.icache.ReadReq.missRate::total     0.093205                       # miss rate for ReadReq accesses (Ratio)
board.cache_hierarchy.icache.ReadReq.avgMissLatency::processor.cores.core.inst 28327.390244                       # average ReadReq miss latency ((Tick/Count))
board.cache_hierarchy.icache.ReadReq.avgMissLatency::total 28327.390244                       # average ReadReq miss latency ((Tick/Count))
board.cache_hierarchy.icache.ReadReq.mshrHits::processor.cores.core.inst         1517                       # number of ReadReq MSHR hits (Count)
board.cache_hierarchy.icache.ReadReq.mshrHits::total         1517                       # number of ReadReq MSHR hits (Count)
board.cache_hierarchy.icache.power_state.pwrStateResidencyTicks::UNDEFINED     31192776                       # Cumulative time (in ticks) in various power states (Tick)
board.cache_hierarchy.icache.prefetcher.demandMshrMisses            0                       # demands not covered by prefetchs (Count)
board.cache_hierarchy.icache.prefetcher.pfIssued          770                       # number of hwpf issued (Count)
board.cache_hierarchy.icache.prefetcher.pfUnused          173                       # number of HardPF blocks evicted w/o reference (Count)
board.cache_hierarchy.icache.prefetcher.pfUseful           98                       # number of useful prefetch (Count)
board.cache_hierarchy.icache.prefetcher.pfUsefulButMiss            0                       # number of hit on prefetch but cache block is not in an usable state (Count)
board.cache_hierarchy.icache.prefetcher.accuracy     0.127273                       # accuracy of the prefetcher (Count)
board.cache_hierarchy.icache.prefetcher.coverage            1                       # coverage brought by this prefetcher (Count)
board.cache_hierarchy.icache.prefetcher.pfHitInCache            0                       # number of prefetches hitting in cache (Count)
board.cache_hierarchy.icache.prefetcher.pfHitInMSHR            0                       # number of prefetches hitting in a MSHR (Count)
board.cache_hierarchy.icache.prefetcher.pfHitInWB            0                       # number of prefetches hit in the Write Buffer (Count)
board.cache_hierarchy.icache.prefetcher.pfLate            0                       # number of late prefetches (hitting in cache, MSHR or WB) (Count)
board.cache_hierarchy.icache.prefetcher.fdipInsertions            0                       # Number of notifications from an insertion in the FTQ (Count)
board.cache_hierarchy.icache.prefetcher.pfIdentified        21174                       # number of prefetches identified. (Count)
board.cache_hierarchy.icache.prefetcher.pfInCache        20402                       # number of prefetches hit in in cache (Count)
board.cache_hierarchy.icache.prefetcher.pfInCachePrefetched            0                       # number of prefetches hit in cache but prefetched (Count)
board.cache_hierarchy.icache.prefetcher.pfPacketsCreated        21174                       # number of prefetch packets created (Count)
board.cache_hierarchy.icache.prefetcher.pfCandidatesAdded          772                       # Number of perfetch candidates added to the prefetch queue (Count)
board.cache_hierarchy.icache.prefetcher.translationFail            0                       # Number of prefetches that failed translation (Count)
board.cache_hierarchy.icache.prefetcher.translationSuccess        21174                       # Number of prefetches that succeeded translation (Count)
board.cache_hierarchy.icache.prefetcher.power_state.pwrStateResidencyTicks::UNDEFINED     31192776                       # Cumulative time (in ticks) in various power states (Tick)
board.cache_hierarchy.icache.tags.tagsInUse   511.949012                       # Average ticks per tags in use ((Tick/Count))
board.cache_hierarchy.icache.tags.totalRefs        15842                       # Total number of references to valid blocks. (Count)
board.cache_hierarchy.icache.tags.sampledRefs          770                       # Sample count of references to valid blocks. (Count)
board.cache_hierarchy.icache.tags.avgRefs    20.574026                       # Average number of references to valid blocks. ((Count/Count))
board.cache_hierarchy.icache.tags.warmupTick            0                       # The tick when the warmup percentage was hit. (Tick)
board.cache_hierarchy.icache.tags.occupancies::processor.cores.core.inst    29.005256                       # Average occupied blocks per tick, per requestor ((Count/Tick))
board.cache_hierarchy.icache.tags.occupancies::cache_hierarchy.icache.prefetcher   482.943756                       # Average occupied blocks per tick, per requestor ((Count/Tick))
board.cache_hierarchy.icache.tags.avgOccs::processor.cores.core.inst     0.056651                       # Average percentage of cache occupancy ((Ratio/Tick))
board.cache_hierarchy.icache.tags.avgOccs::cache_hierarchy.icache.prefetcher     0.943250                       # Average percentage of cache occupancy ((Ratio/Tick))
board.cache_hierarchy.icache.tags.avgOccs::total     0.999900                       # Average percentage of cache occupancy ((Ratio/Tick))
board.cache_hierarchy.icache.tags.occupanciesTaskId::1022          512                       # Occupied blocks per task id (Count)
board.cache_hierarchy.icache.tags.ageTaskId_1022::0          512                       # Occupied blocks per task id, per block age (Count)
board.cache_hierarchy.icache.tags.ratioOccsTaskId::1022            1                       # Ratio of occupied blocks and all blocks, per task id (Ratio)
board.cache_hierarchy.icache.tags.tagAccesses       130980                       # Number of tag accesses (Count)
board.cache_hierarchy.icache.tags.dataAccesses       130980                       # Number of data accesses (Count)
board.cache_hierarchy.icache.tags.power_state.pwrStateResidencyTicks::UNDEFINED     31192776                       # Cumulative time (in ticks) in various power states (Tick)
board.cache_hierarchy.membus.transDist::ReadResp          772                       # Transaction distribution (Count)
board.cache_hierarchy.membus.transDist::WritebackClean          770                       # Transaction distribution (Count)
board.cache_hierarchy.membus.transDist::ReadSharedReq          770                       # Transaction distribution (Count)
board.cache_hierarchy.membus.pktCount_board.cache_hierarchy.icache.mem_side_port::board.memory.mem_ctrl.port         2312                       # Packet count per connected requestor and responder (Count)
board.cache_hierarchy.membus.pktCount_board.cache_hierarchy.icache.mem_side_port::total         2312                       # Packet count per connected requestor and responder (Count)
board.cache_hierarchy.membus.pktCount::total         2312                       # Packet count per connected requestor and responder (Count)
board.cache_hierarchy.membus.pktSize_board.cache_hierarchy.icache.mem_side_port::board.memory.mem_ctrl.port        98688                       # Cumulative packet size per connected requestor and responder (Byte)
board.cache_hierarchy.membus.pktSize_board.cache_hierarchy.icache.mem_side_port::total        98688                       # Cumulative packet size per connected requestor and responder (Byte)
board.cache_hierarchy.membus.pktSize::total        98688                       # Cumulative packet size per connected requestor and responder (Byte)
board.cache_hierarchy.membus.snoops                 0                       # Total snoops (Count)
board.cache_hierarchy.membus.snoopTraffic            0                       # Total snoop traffic (Byte)
board.cache_hierarchy.membus.snoopFanout::samples          770                       # Request fanout histogram (Count)
board.cache_hierarchy.membus.snoopFanout::mean            0                       # Request fanout histogram (Count)
board.cache_hierarchy.membus.snoopFanout::stdev            0                       # Request fanout histogram (Count)
board.cache_hierarchy.membus.snoopFanout::underflows            0      0.00%      0.00% # Request fanout histogram (Count)
board.cache_hierarchy.membus.snoopFanout::0          770    100.00%    100.00% # Request fanout histogram (Count)
board.cache_hierarchy.membus.snoopFanout::1            0      0.00%    100.00% # Request fanout histogram (Count)
board.cache_hierarchy.membus.snoopFanout::2            0      0.00%    100.00% # Request fanout histogram (Count)
board.cache_hierarchy.membus.snoopFanout::3            0      0.00%    100.00% # Request fanout histogram (Count)
board.cache_hierarchy.membus.snoopFanout::overflows            0      0.00%    100.00% # Request fanout histogram (Count)
board.cache_hierarchy.membus.snoopFanout::min_value            0                       # Request fanout histogram (Count)
board.cache_hierarchy.membus.snoopFanout::max_value            0                       # Request fanout histogram (Count)
board.cache_hierarchy.membus.snoopFanout::total          770                       # Request fanout histogram (Count)
board.cache_hierarchy.membus.badaddr_responder.power_state.pwrStateResidencyTicks::UNDEFINED     31192776                       # Cumulative time (in ticks) in various power states (Tick)
board.cache_hierarchy.membus.power_state.pwrStateResidencyTicks::UNDEFINED     31192776                       # Cumulative time (in ticks) in various power states (Tick)
board.cache_hierarchy.membus.reqLayer0.occupancy       815710                       # Layer occupancy (ticks) (Tick)
board.cache_hierarchy.membus.reqLayer0.utilization          0.1                       # Layer utilization (Ratio)
board.cache_hierarchy.membus.respLayer1.occupancy       664893                       # Layer occupancy (ticks) (Tick)
board.cache_hierarchy.membus.respLayer1.utilization          0.0                       # Layer utilization (Ratio)
board.cache_hierarchy.membus.snoop_filter.totRequests         1540                       # Total number of requests made to the snoop filter. (Count)
board.cache_hierarchy.membus.snoop_filter.hitSingleRequests          763                       # Number of requests hitting in the snoop filter with a single holder of the requested data. (Count)
board.cache_hierarchy.membus.snoop_filter.hitMultiRequests            7                       # Number of requests hitting in the snoop filter with multiple (>1) holders of the requested data. (Count)
board.cache_hierarchy.membus.snoop_filter.totSnoops            0                       # Total number of snoops made to the snoop filter. (Count)
board.cache_hierarchy.membus.snoop_filter.hitSingleSnoops            0                       # Number of snoops hitting in the snoop filter with a single holder of the requested data. (Count)
board.cache_hierarchy.membus.snoop_filter.hitMultiSnoops            0                       # Number of snoops hitting in the snoop filter with multiple (>1) holders of the requested data. (Count)
board.cache_hierarchy.mmubus.snoops                 0                       # Total snoops (Count)
board.cache_hierarchy.mmubus.snoopTraffic            0                       # Total snoop traffic (Byte)
board.cache_hierarchy.mmubus.snoopFanout::samples            0                       # Request fanout histogram (Count)
board.cache_hierarchy.mmubus.snoopFanout::mean          nan                       # Request fanout histogram (Count)
board.cache_hierarchy.mmubus.snoopFanout::stdev          nan                       # Request fanout histogram (Count)
board.cache_hierarchy.mmubus.snoopFanout::underflows            0                       # Request fanout histogram (Count)
board.cache_hierarchy.mmubus.snoopFanout::0            0                       # Request fanout histogram (Count)
board.cache_hierarchy.mmubus.snoopFanout::overflows            0                       # Request fanout histogram (Count)
board.cache_hierarchy.mmubus.snoopFanout::min_value            0                       # Request fanout histogram (Count)
board.cache_hierarchy.mmubus.snoopFanout::max_value            0                       # Request fanout histogram (Count)
board.cache_hierarchy.mmubus.snoopFanout::total            0                       # Request fanout histogram (Count)
board.cache_hierarchy.mmubus.power_state.pwrStateResidencyTicks::UNDEFINED     31192776                       # Cumulative time (in ticks) in various power states (Tick)
board.cache_hierarchy.mmubus.snoop_filter.totRequests            0                       # Total number of requests made to the snoop filter. (Count)
board.cache_hierarchy.mmubus.snoop_filter.hitSingleRequests            0                       # Number of requests hitting in the snoop filter with a single holder of the requested data. (Count)
board.cache_hierarchy.mmubus.snoop_filter.hitMultiRequests            0                       # Number of requests hitting in the snoop filter with multiple (>1) holders of the requested data. (Count)
board.cache_hierarchy.mmubus.snoop_filter.totSnoops            0                       # Total number of snoops made to the snoop filter. (Count)
board.cache_hierarchy.mmubus.snoop_filter.hitSingleSnoops            0                       # Number of snoops hitting in the snoop filter with a single holder of the requested data. (Count)
board.cache_hierarchy.mmubus.snoop_filter.hitMultiSnoops            0                       # Number of snoops hitting in the snoop filter with multiple (>1) holders of the requested data. (Count)
board.cache_hierarchy.mmucache.blockedCycles::no_mshrs            0                       # number of cycles access was blocked (Cycle)
board.cache_hierarchy.mmucache.blockedCycles::no_targets            0                       # number of cycles access was blocked (Cycle)
board.cache_hierarchy.mmucache.blockedCauses::no_mshrs            0                       # number of times access was blocked (Count)
board.cache_hierarchy.mmucache.blockedCauses::no_targets            0                       # number of times access was blocked (Count)
board.cache_hierarchy.mmucache.avgBlocked::no_mshrs          nan                       # average number of cycles each access was blocked ((Cycle/Count))
board.cache_hierarchy.mmucache.avgBlocked::no_targets          nan                       # average number of cycles each access was blocked ((Cycle/Count))
board.cache_hierarchy.mmucache.replacements            0                       # number of replacements (Count)
board.cache_hierarchy.mmucache.power_state.pwrStateResidencyTicks::UNDEFINED     31192776                       # Cumulative time (in ticks) in various power states (Tick)
board.cache_hierarchy.mmucache.tags.tagsInUse            0                       # Average ticks per tags in use ((Tick/Count))
board.cache_hierarchy.mmucache.tags.totalRefs            0                       # Total number of references to valid blocks. (Count)
board.cache_hierarchy.mmucache.tags.sampledRefs            0                       # Sample count of references to valid blocks. (Count)
board.cache_hierarchy.mmucache.tags.avgRefs          nan                       # Average number of references to valid blocks. ((Count/Count))
board.cache_hierarchy.mmucache.tags.warmupTick            0                       # The tick when the warmup percentage was hit. (Tick)
board.cache_hierarchy.mmucache.tags.tagAccesses            0                       # Number of tag accesses (Count)
board.cache_hierarchy.mmucache.tags.dataAccesses            0                       # Number of data accesses (Count)
board.cache_hierarchy.mmucache.tags.power_state.pwrStateResidencyTicks::UNDEFINED     31192776                       # Cumulative time (in ticks) in various power states (Tick)
board.clk_domain.clock                            333                       # Clock period in ticks (Tick)
board.clk_domain.voltage_domain.voltage             1                       # Voltage in Volts (Volt)
board.memory.mem_ctrl.avgPriority_writebacks::samples       763.00                       # Average QoS priority value for accepted requests (Count)
board.memory.mem_ctrl.avgPriority_cache_hierarchy.icache.prefetcher::samples       770.00                       # Average QoS priority value for accepted requests (Count)
board.memory.mem_ctrl.priorityMinLatency 0.000000018750                       # per QoS priority minimum request to response latency (Second)
board.memory.mem_ctrl.priorityMaxLatency 0.000003157626                       # per QoS priority maximum request to response latency (Second)
board.memory.mem_ctrl.numReadWriteTurnArounds           47                       # Number of turnarounds from READ to WRITE (Count)
board.memory.mem_ctrl.numWriteReadTurnArounds           47                       # Number of turnarounds from WRITE to READ (Count)
board.memory.mem_ctrl.numStayReadState           1955                       # Number of times bus staying in READ state (Count)
board.memory.mem_ctrl.numStayWriteState           707                       # Number of times bus staying in WRITE state (Count)
board.memory.mem_ctrl.readReqs                    770                       # Number of read requests accepted (Count)
board.memory.mem_ctrl.writeReqs                   763                       # Number of write requests accepted (Count)
board.memory.mem_ctrl.readBursts                  770                       # Number of controller read bursts, including those serviced by the write queue (Count)
board.memory.mem_ctrl.writeBursts                 763                       # Number of controller write bursts, including those merged in the write queue (Count)
board.memory.mem_ctrl.servicedByWrQ                 0                       # Number of controller read bursts serviced by the write queue (Count)
board.memory.mem_ctrl.mergedWrBursts                0                       # Number of controller write bursts merged with an existing one (Count)
board.memory.mem_ctrl.neitherReadNorWriteReqs            0                       # Number of requests that are neither read nor write (Count)
board.memory.mem_ctrl.avgRdQLen                  3.25                       # Average read queue length when enqueuing ((Count/Tick))
board.memory.mem_ctrl.avgWrQLen                 26.56                       # Average write queue length when enqueuing ((Count/Tick))
board.memory.mem_ctrl.numRdRetry                    0                       # Number of times read queue was full causing retry (Count)
board.memory.mem_ctrl.numWrRetry                    0                       # Number of times write queue was full causing retry (Count)
board.memory.mem_ctrl.readPktSize::0                0                       # Read request sizes (log2) (Count)
board.memory.mem_ctrl.readPktSize::1                0                       # Read request sizes (log2) (Count)
board.memory.mem_ctrl.readPktSize::2                0                       # Read request sizes (log2) (Count)
board.memory.mem_ctrl.readPktSize::3                0                       # Read request sizes (log2) (Count)
board.memory.mem_ctrl.readPktSize::4                0                       # Read request sizes (log2) (Count)
board.memory.mem_ctrl.readPktSize::5                0                       # Read request sizes (log2) (Count)
board.memory.mem_ctrl.readPktSize::6              770                       # Read request sizes (log2) (Count)
board.memory.mem_ctrl.writePktSize::0               0                       # Write request sizes (log2) (Count)
board.memory.mem_ctrl.writePktSize::1               0                       # Write request sizes (log2) (Count)
board.memory.mem_ctrl.writePktSize::2               0                       # Write request sizes (log2) (Count)
board.memory.mem_ctrl.writePktSize::3               0                       # Write request sizes (log2) (Count)
board.memory.mem_ctrl.writePktSize::4               0                       # Write request sizes (log2) (Count)
board.memory.mem_ctrl.writePktSize::5               0                       # Write request sizes (log2) (Count)
board.memory.mem_ctrl.writePktSize::6             763                       # Write request sizes (log2) (Count)
board.memory.mem_ctrl.rdQLenPdf::0                152                       # What read queue length does an incoming req see (Count)
board.memory.mem_ctrl.rdQLenPdf::1                241                       # What read queue length does an incoming req see (Count)
board.memory.mem_ctrl.rdQLenPdf::2                288                       # What read queue length does an incoming req see (Count)
board.memory.mem_ctrl.rdQLenPdf::3                 85                       # What read queue length does an incoming req see (Count)
board.memory.mem_ctrl.rdQLenPdf::4                  2                       # What read queue length does an incoming req see (Count)
board.memory.mem_ctrl.rdQLenPdf::5                  2                       # What read queue length does an incoming req see (Count)
board.memory.mem_ctrl.rdQLenPdf::6                  0                       # What read queue length does an incoming req see (Count)
board.memory.mem_ctrl.rdQLenPdf::7                  0                       # What read queue length does an incoming req see (Count)
board.memory.mem_ctrl.rdQLenPdf::8                  0                       # What read queue length does an incoming req see (Count)
board.memory.mem_ctrl.rdQLenPdf::9                  0                       # What read queue length does an incoming req see (Count)
board.memory.mem_ctrl.rdQLenPdf::10                 0                       # What read queue length does an incoming req see (Count)
board.memory.mem_ctrl.rdQLenPdf::11                 0                       # What read queue length does an incoming req see (Count)
board.memory.mem_ctrl.rdQLenPdf::12                 0                       # What read queue length does an incoming req see (Count)
board.memory.mem_ctrl.rdQLenPdf::13                 0                       # What read queue length does an incoming req see (Count)
board.memory.mem_ctrl.rdQLenPdf::14                 0                       # What read queue length does an incoming req see (Count)
board.memory.mem_ctrl.rdQLenPdf::15                 0                       # What read queue length does an incoming req see (Count)
board.memory.mem_ctrl.rdQLenPdf::16                 0                       # What read queue length does an incoming req see (Count)
board.memory.mem_ctrl.rdQLenPdf::17                 0                       # What read queue length does an incoming req see (Count)
board.memory.mem_ctrl.rdQLenPdf::18                 0                       # What read queue length does an incoming req see (Count)
board.memory.mem_ctrl.rdQLenPdf::19                 0                       # What read queue length does an incoming req see (Count)
board.memory.mem_ctrl.rdQLenPdf::20                 0                       # What read queue length does an incoming req see (Count)
board.memory.mem_ctrl.rdQLenPdf::21                 0                       # What read queue length does an incoming req see (Count)
board.memory.mem_ctrl.rdQLenPdf::22                 0                       # What read queue length does an incoming req see (Count)
board.memory.mem_ctrl.rdQLenPdf::23                 0                       # What read queue length does an incoming req see (Count)
board.memory.mem_ctrl.rdQLenPdf::24                 0                       # What read queue length does an incoming req see (Count)
board.memory.mem_ctrl.rdQLenPdf::25                 0                       # What read queue length does an incoming req see (Count)
board.memory.mem_ctrl.rdQLenPdf::26                 0                       # What read queue length does an incoming req see (Count)
board.memory.mem_ctrl.rdQLenPdf::27                 0                       # What read queue length does an incoming req see (Count)
board.memory.mem_ctrl.rdQLenPdf::28                 0                       # What read queue length does an incoming req see (Count)
board.memory.mem_ctrl.rdQLenPdf::29                 0                       # What read queue length does an incoming req see (Count)
board.memory.mem_ctrl.rdQLenPdf::30                 0                       # What read queue length does an incoming req see (Count)
board.memory.mem_ctrl.rdQLenPdf::31                 0                       # What read queue length does an incoming req see (Count)
board.memory.mem_ctrl.wrQLenPdf::0                  0                       # What write queue length does an incoming req see (Count)
board.memory.mem_ctrl.wrQLenPdf::1                  0                       # What write queue length does an incoming req see (Count)
board.memory.mem_ctrl.wrQLenPdf::2                  0                       # What write queue length does an incoming req see (Count)
board.memory.mem_ctrl.wrQLenPdf::3                  0                       # What write queue length does an incoming req see (Count)
board.memory.mem_ctrl.wrQLenPdf::4                  0                       # What write queue length does an incoming req see (Count)
board.memory.mem_ctrl.wrQLenPdf::5                  0                       # What write queue length does an incoming req see (Count)
board.memory.mem_ctrl.wrQLenPdf::6                  0                       # What write queue length does an incoming req see (Count)
board.memory.mem_ctrl.wrQLenPdf::7                  0                       # What write queue length does an incoming req see (Count)
board.memory.mem_ctrl.wrQLenPdf::8                  0                       # What write queue length does an incoming req see (Count)
board.memory.mem_ctrl.wrQLenPdf::9                  0                       # What write queue length does an incoming req see (Count)
board.memory.mem_ctrl.wrQLenPdf::10                 0                       # What write queue length does an incoming req see (Count)
board.memory.mem_ctrl.wrQLenPdf::11                 0                       # What write queue length does an incoming req see (Count)
board.memory.mem_ctrl.wrQLenPdf::12                 0                       # What write queue length does an incoming req see (Count)
board.memory.mem_ctrl.wrQLenPdf::13                 0                       # What write queue length does an incoming req see (Count)
board.memory.mem_ctrl.wrQLenPdf::14                 0                       # What write queue length does an incoming req see (Count)
board.memory.mem_ctrl.wrQLenPdf::15                 0                       # What write queue length does an incoming req see (Count)
board.memory.mem_ctrl.wrQLenPdf::16                 0                       # What write queue length does an incoming req see (Count)
board.memory.mem_ctrl.wrQLenPdf::17                 0                       # What write queue length does an incoming req see (Count)
board.memory.mem_ctrl.wrQLenPdf::18                 1                       # What write queue length does an incoming req see (Count)
board.memory.mem_ctrl.wrQLenPdf::19                 1                       # What write queue length does an incoming req see (Count)
board.memory.mem_ctrl.wrQLenPdf::20                47                       # What write queue length does an incoming req see (Count)
board.memory.mem_ctrl.wrQLenPdf::21                47                       # What write queue length does an incoming req see (Count)
board.memory.mem_ctrl.wrQLenPdf::22                76                       # What write queue length does an incoming req see (Count)
board.memory.mem_ctrl.wrQLenPdf::23                56                       # What write queue length does an incoming req see (Count)
board.memory.mem_ctrl.wrQLenPdf::24                59                       # What write queue length does an incoming req see (Count)
board.memory.mem_ctrl.wrQLenPdf::25                74                       # What write queue length does an incoming req see (Count)
board.memory.mem_ctrl.wrQLenPdf::26                72                       # What write queue length does an incoming req see (Count)
board.memory.mem_ctrl.wrQLenPdf::27                59                       # What write queue length does an incoming req see (Count)
board.memory.mem_ctrl.wrQLenPdf::28                61                       # What write queue length does an incoming req see (Count)
board.memory.mem_ctrl.wrQLenPdf::29                55                       # What write queue length does an incoming req see (Count)
board.memory.mem_ctrl.wrQLenPdf::30                55                       # What write queue length does an incoming req see (Count)
board.memory.mem_ctrl.wrQLenPdf::31                48                       # What write queue length does an incoming req see (Count)
board.memory.mem_ctrl.wrQLenPdf::32                48                       # What write queue length does an incoming req see (Count)
board.memory.mem_ctrl.wrQLenPdf::33                 1                       # What write queue length does an incoming req see (Count)
board.memory.mem_ctrl.wrQLenPdf::34                 1                       # What write queue length does an incoming req see (Count)
board.memory.mem_ctrl.wrQLenPdf::35                 1                       # What write queue length does an incoming req see (Count)
board.memory.mem_ctrl.wrQLenPdf::36                 1                       # What write queue length does an incoming req see (Count)
board.memory.mem_ctrl.wrQLenPdf::37                 0                       # What write queue length does an incoming req see (Count)
board.memory.mem_ctrl.wrQLenPdf::38                 0                       # What write queue length does an incoming req see (Count)
board.memory.mem_ctrl.wrQLenPdf::39                 0                       # What write queue length does an incoming req see (Count)
board.memory.mem_ctrl.wrQLenPdf::40                 0                       # What write queue length does an incoming req see (Count)
board.memory.mem_ctrl.wrQLenPdf::41                 0                       # What write queue length does an incoming req see (Count)
board.memory.mem_ctrl.wrQLenPdf::42                 0                       # What write queue length does an incoming req see (Count)
board.memory.mem_ctrl.wrQLenPdf::43                 0                       # What write queue length does an incoming req see (Count)
board.memory.mem_ctrl.wrQLenPdf::44                 0                       # What write queue length does an incoming req see (Count)
board.memory.mem_ctrl.wrQLenPdf::45                 0                       # What write queue length does an incoming req see (Count)
board.memory.mem_ctrl.wrQLenPdf::46                 0                       # What write queue length does an incoming req see (Count)
board.memory.mem_ctrl.wrQLenPdf::47                 0                       # What write queue length does an incoming req see (Count)
board.memory.mem_ctrl.wrQLenPdf::48                 0                       # What write queue length does an incoming req see (Count)
board.memory.mem_ctrl.wrQLenPdf::49                 0                       # What write queue length does an incoming req see (Count)
board.memory.mem_ctrl.wrQLenPdf::50                 0                       # What write queue length does an incoming req see (Count)
board.memory.mem_ctrl.wrQLenPdf::51                 0                       # What write queue length does an incoming req see (Count)
board.memory.mem_ctrl.wrQLenPdf::52                 0                       # What write queue length does an incoming req see (Count)
board.memory.mem_ctrl.wrQLenPdf::53                 0                       # What write queue length does an incoming req see (Count)
board.memory.mem_ctrl.wrQLenPdf::54                 0                       # What write queue length does an incoming req see (Count)
board.memory.mem_ctrl.wrQLenPdf::55                 0                       # What write queue length does an incoming req see (Count)
board.memory.mem_ctrl.wrQLenPdf::56                 0                       # What write queue length does an incoming req see (Count)
board.memory.mem_ctrl.wrQLenPdf::57                 0                       # What write queue length does an incoming req see (Count)
board.memory.mem_ctrl.wrQLenPdf::58                 0                       # What write queue length does an incoming req see (Count)
board.memory.mem_ctrl.wrQLenPdf::59                 0                       # What write queue length does an incoming req see (Count)
board.memory.mem_ctrl.wrQLenPdf::60                 0                       # What write queue length does an incoming req see (Count)
board.memory.mem_ctrl.wrQLenPdf::61                 0                       # What write queue length does an incoming req see (Count)
board.memory.mem_ctrl.wrQLenPdf::62                 0                       # What write queue length does an incoming req see (Count)
board.memory.mem_ctrl.wrQLenPdf::63                 0                       # What write queue length does an incoming req see (Count)
board.memory.mem_ctrl.rdPerTurnAround::samples           47                       # Reads before turning the bus around for writes (Count)
board.memory.mem_ctrl.rdPerTurnAround::mean    16.234043                       # Reads before turning the bus around for writes (Count)
board.memory.mem_ctrl.rdPerTurnAround::gmean    16.225048                       # Reads before turning the bus around for writes (Count)
board.memory.mem_ctrl.rdPerTurnAround::stdev     0.559999                       # Reads before turning the bus around for writes (Count)
board.memory.mem_ctrl.rdPerTurnAround::16           39     82.98%     82.98% # Reads before turning the bus around for writes (Count)
board.memory.mem_ctrl.rdPerTurnAround::17            5     10.64%     93.62% # Reads before turning the bus around for writes (Count)
board.memory.mem_ctrl.rdPerTurnAround::18            3      6.38%    100.00% # Reads before turning the bus around for writes (Count)
board.memory.mem_ctrl.rdPerTurnAround::total           47                       # Reads before turning the bus around for writes (Count)
board.memory.mem_ctrl.wrPerTurnAround::samples           47                       # Writes before turning the bus around for reads (Count)
board.memory.mem_ctrl.wrPerTurnAround::mean           16                       # Writes before turning the bus around for reads (Count)
board.memory.mem_ctrl.wrPerTurnAround::gmean    16.000000                       # Writes before turning the bus around for reads (Count)
board.memory.mem_ctrl.wrPerTurnAround::16           47    100.00%    100.00% # Writes before turning the bus around for reads (Count)
board.memory.mem_ctrl.wrPerTurnAround::total           47                       # Writes before turning the bus around for reads (Count)
board.memory.mem_ctrl.bytesReadWrQ                  0                       # Total number of bytes read from write queue (Byte)
board.memory.mem_ctrl.bytesReadSys              49280                       # Total read bytes from the system interface side (Byte)
board.memory.mem_ctrl.bytesWrittenSys           48832                       # Total written bytes from the system interface side (Byte)
board.memory.mem_ctrl.avgRdBWSys         3412770979.59061861                       # Average system read bandwidth in Byte/s ((Byte/Second))
board.memory.mem_ctrl.avgWrBWSys         3381745788.86706734                       # Average system write bandwidth in Byte/s ((Byte/Second))
board.memory.mem_ctrl.totGap                 14433885                       # Total gap between requests (Tick)
board.memory.mem_ctrl.avgGap                  9415.45                       # Average gap between requests ((Tick/Count))
board.memory.mem_ctrl.requestorReadBytes::cache_hierarchy.icache.prefetcher        49152                       # Per-requestor bytes read from memory (Byte)
board.memory.mem_ctrl.requestorWriteBytes::writebacks        48128                       # Per-requestor bytes write to memory (Byte)
board.memory.mem_ctrl.requestorReadRate::cache_hierarchy.icache.prefetcher 3403906639.383889675140                       # Per-requestor bytes read from memory rate ((Byte/Second))
board.memory.mem_ctrl.requestorWriteRate::writebacks 3332991917.730058670044                       # Per-requestor bytes write to memory rate ((Byte/Second))
board.memory.mem_ctrl.requestorReadAccesses::cache_hierarchy.icache.prefetcher          770                       # Per-requestor read serviced memory accesses (Count)
board.memory.mem_ctrl.requestorWriteAccesses::writebacks          763                       # Per-requestor write serviced memory accesses (Count)
board.memory.mem_ctrl.requestorReadTotalLat::cache_hierarchy.icache.prefetcher     36515229                       # Per-requestor read total memory access latency (Tick)
board.memory.mem_ctrl.requestorWriteTotalLat::writebacks    379159231                       # Per-requestor write total memory access latency (Tick)
board.memory.mem_ctrl.requestorReadAvgLat::cache_hierarchy.icache.prefetcher     47422.38                       # Per-requestor read average memory access latency ((Tick/Count))
board.memory.mem_ctrl.requestorWriteAvgLat::writebacks    496932.15                       # Per-requestor write average memory access latency ((Tick/Count))
board.memory.mem_ctrl.dram.bytesRead::cache_hierarchy.icache.prefetcher        49344                       # Number of bytes read from this memory (Byte)
board.memory.mem_ctrl.dram.bytesRead::total        49344                       # Number of bytes read from this memory (Byte)
board.memory.mem_ctrl.dram.bytesInstRead::cache_hierarchy.icache.prefetcher        49344                       # Number of instructions bytes read from this memory (Byte)
board.memory.mem_ctrl.dram.bytesInstRead::total        49344                       # Number of instructions bytes read from this memory (Byte)
board.memory.mem_ctrl.dram.numReads::cache_hierarchy.icache.prefetcher          771                       # Number of read requests responded to by this memory (Count)
board.memory.mem_ctrl.dram.numReads::total          771                       # Number of read requests responded to by this memory (Count)
board.memory.mem_ctrl.dram.bwRead::cache_hierarchy.icache.prefetcher   3417203150                       # Total read bandwidth from this memory ((Byte/Second))
board.memory.mem_ctrl.dram.bwRead::total   3417203150                       # Total read bandwidth from this memory ((Byte/Second))
board.memory.mem_ctrl.dram.bwInstRead::cache_hierarchy.icache.prefetcher   3417203150                       # Instruction read bandwidth from this memory ((Byte/Second))
board.memory.mem_ctrl.dram.bwInstRead::total   3417203150                       # Instruction read bandwidth from this memory ((Byte/Second))
board.memory.mem_ctrl.dram.bwTotal::cache_hierarchy.icache.prefetcher   3417203150                       # Total bandwidth to/from this memory ((Byte/Second))
board.memory.mem_ctrl.dram.bwTotal::total   3417203150                       # Total bandwidth to/from this memory ((Byte/Second))
board.memory.mem_ctrl.dram.readBursts             768                       # Number of DRAM read bursts (Count)
board.memory.mem_ctrl.dram.writeBursts            752                       # Number of DRAM write bursts (Count)
board.memory.mem_ctrl.dram.perBankRdBursts::0           96                       # Per bank write bursts (Count)
board.memory.mem_ctrl.dram.perBankRdBursts::1          128                       # Per bank write bursts (Count)
board.memory.mem_ctrl.dram.perBankRdBursts::2          128                       # Per bank write bursts (Count)
board.memory.mem_ctrl.dram.perBankRdBursts::3          128                       # Per bank write bursts (Count)
board.memory.mem_ctrl.dram.perBankRdBursts::4          128                       # Per bank write bursts (Count)
board.memory.mem_ctrl.dram.perBankRdBursts::5          128                       # Per bank write bursts (Count)
board.memory.mem_ctrl.dram.perBankRdBursts::6           32                       # Per bank write bursts (Count)
board.memory.mem_ctrl.dram.perBankRdBursts::7            0                       # Per bank write bursts (Count)
board.memory.mem_ctrl.dram.perBankRdBursts::8            0                       # Per bank write bursts (Count)
board.memory.mem_ctrl.dram.perBankRdBursts::9            0                       # Per bank write bursts (Count)
board.memory.mem_ctrl.dram.perBankRdBursts::10            0                       # Per bank write bursts (Count)
board.memory.mem_ctrl.dram.perBankRdBursts::11            0                       # Per bank write bursts (Count)
board.memory.mem_ctrl.dram.perBankRdBursts::12            0                       # Per bank write bursts (Count)
board.memory.mem_ctrl.dram.perBankRdBursts::13            0                       # Per bank write bursts (Count)
board.memory.mem_ctrl.dram.perBankRdBursts::14            0                       # Per bank write bursts (Count)
board.memory.mem_ctrl.dram.perBankRdBursts::15            0                       # Per bank write bursts (Count)
board.memory.mem_ctrl.dram.perBankWrBursts::0          130                       # Per bank write bursts (Count)
board.memory.mem_ctrl.dram.perBankWrBursts::1          193                       # Per bank write bursts (Count)
board.memory.mem_ctrl.dram.perBankWrBursts::2           33                       # Per bank write bursts (Count)
board.memory.mem_ctrl.dram.perBankWrBursts::3           26                       # Per bank write bursts (Count)
board.memory.mem_ctrl.dram.perBankWrBursts::4           27                       # Per bank write bursts (Count)
board.memory.mem_ctrl.dram.perBankWrBursts::5           13                       # Per bank write bursts (Count)
board.memory.mem_ctrl.dram.perBankWrBursts::6           53                       # Per bank write bursts (Count)
board.memory.mem_ctrl.dram.perBankWrBursts::7           21                       # Per bank write bursts (Count)
board.memory.mem_ctrl.dram.perBankWrBursts::8           40                       # Per bank write bursts (Count)
board.memory.mem_ctrl.dram.perBankWrBursts::9           20                       # Per bank write bursts (Count)
board.memory.mem_ctrl.dram.perBankWrBursts::10           39                       # Per bank write bursts (Count)
board.memory.mem_ctrl.dram.perBankWrBursts::11           25                       # Per bank write bursts (Count)
board.memory.mem_ctrl.dram.perBankWrBursts::12           32                       # Per bank write bursts (Count)
board.memory.mem_ctrl.dram.perBankWrBursts::13           17                       # Per bank write bursts (Count)
board.memory.mem_ctrl.dram.perBankWrBursts::14           65                       # Per bank write bursts (Count)
board.memory.mem_ctrl.dram.perBankWrBursts::15           18                       # Per bank write bursts (Count)
board.memory.mem_ctrl.dram.totQLat           22115229                       # Total ticks spent queuing (Tick)
board.memory.mem_ctrl.dram.totBusLat          3840000                       # Total ticks spent in databus transfers (Tick)
board.memory.mem_ctrl.dram.totMemAccLat      36515229                       # Total ticks spent from burst creation until serviced by the DRAM (Tick)
board.memory.mem_ctrl.dram.avgQLat           28795.87                       # Average queueing delay per DRAM burst ((Tick/Count))
board.memory.mem_ctrl.dram.avgBusLat          5000.00                       # Average bus latency per DRAM burst ((Tick/Count))
board.memory.mem_ctrl.dram.avgMemAccLat      47545.87                       # Average memory access latency per DRAM burst ((Tick/Count))
board.memory.mem_ctrl.dram.readRowHits            714                       # Number of row buffer hits during reads (Count)
board.memory.mem_ctrl.dram.writeRowHits           631                       # Number of row buffer hits during writes (Count)
board.memory.mem_ctrl.dram.readRowHitRate        92.97                       # Row buffer hit rate for reads (Ratio)
board.memory.mem_ctrl.dram.writeRowHitRate        83.91                       # Row buffer hit rate for writes (Ratio)
board.memory.mem_ctrl.dram.bytesPerActivate::samples          188                       # Bytes accessed per row activation (Byte)
board.memory.mem_ctrl.dram.bytesPerActivate::mean   533.106383                       # Bytes accessed per row activation (Byte)
board.memory.mem_ctrl.dram.bytesPerActivate::gmean   360.930519                       # Bytes accessed per row activation (Byte)
board.memory.mem_ctrl.dram.bytesPerActivate::stdev   394.232388                       # Bytes accessed per row activation (Byte)
board.memory.mem_ctrl.dram.bytesPerActivate::0-127           23     12.23%     12.23% # Bytes accessed per row activation (Byte)
board.memory.mem_ctrl.dram.bytesPerActivate::128-255           42     22.34%     34.57% # Bytes accessed per row activation (Byte)
board.memory.mem_ctrl.dram.bytesPerActivate::256-383           27     14.36%     48.94% # Bytes accessed per row activation (Byte)
board.memory.mem_ctrl.dram.bytesPerActivate::384-511           12      6.38%     55.32% # Bytes accessed per row activation (Byte)
board.memory.mem_ctrl.dram.bytesPerActivate::512-639            7      3.72%     59.04% # Bytes accessed per row activation (Byte)
board.memory.mem_ctrl.dram.bytesPerActivate::640-767            7      3.72%     62.77% # Bytes accessed per row activation (Byte)
board.memory.mem_ctrl.dram.bytesPerActivate::768-895            3      1.60%     64.36% # Bytes accessed per row activation (Byte)
board.memory.mem_ctrl.dram.bytesPerActivate::896-1023            2      1.06%     65.43% # Bytes accessed per row activation (Byte)
board.memory.mem_ctrl.dram.bytesPerActivate::1024-1151           65     34.57%    100.00% # Bytes accessed per row activation (Byte)
board.memory.mem_ctrl.dram.bytesPerActivate::total          188                       # Bytes accessed per row activation (Byte)
board.memory.mem_ctrl.dram.bytesRead            49152                       # Total bytes read (Byte)
board.memory.mem_ctrl.dram.bytesWritten         48128                       # Total bytes written (Byte)
board.memory.mem_ctrl.dram.avgRdBW        3403.906639                       # Average DRAM read bandwidth in MiBytes/s ((Byte/Second))
board.memory.mem_ctrl.dram.avgWrBW        3332.991918                       # Average DRAM write bandwidth in MiBytes/s ((Byte/Second))
board.memory.mem_ctrl.dram.peakBW            12800.00                       # Theoretical peak bandwidth in MiByte/s ((Byte/Second))
board.memory.mem_ctrl.dram.busUtil              52.63                       # Data bus utilization in percentage (Ratio)
board.memory.mem_ctrl.dram.busUtilRead          26.59                       # Data bus utilization in percentage for reads (Ratio)
board.memory.mem_ctrl.dram.busUtilWrite         26.04                       # Data bus utilization in percentage for writes (Ratio)
board.memory.mem_ctrl.dram.pageHitRate          88.49                       # Row buffer hit rate, read and write combined (Ratio)
board.memory.mem_ctrl.dram.power_state.pwrStateResidencyTicks::UNDEFINED     31192776                       # Cumulative time (in ticks) in various power states (Tick)
board.memory.mem_ctrl.dram.rank0.actEnergy       963900                       # Energy for activate commands per rank (pJ) (Joule)
board.memory.mem_ctrl.dram.rank0.preEnergy       512325                       # Energy for precharge commands per rank (pJ) (Joule)
board.memory.mem_ctrl.dram.rank0.readEnergy      5569200                       # Energy for read commands per rank (pJ) (Joule)
board.memory.mem_ctrl.dram.rank0.writeEnergy      2683080                       # Energy for write commands per rank (pJ) (Joule)
board.memory.mem_ctrl.dram.rank0.refreshEnergy 1229280.000000                       # Energy for refresh commands per rank (pJ) (Joule)
board.memory.mem_ctrl.dram.rank0.actBackEnergy      6885600                       # Energy for active background per rank (pJ) (Joule)
board.memory.mem_ctrl.dram.rank0.preBackEnergy       120960                       # Energy for precharge background per rank (pJ) (Joule)
board.memory.mem_ctrl.dram.rank0.actPowerDownEnergy            0                       # Energy for active power-down per rank (pJ) (Joule)
board.memory.mem_ctrl.dram.rank0.prePowerDownEnergy            0                       # Energy for precharge power-down per rank (pJ) (Joule)
board.memory.mem_ctrl.dram.rank0.selfRefreshEnergy            0                       # Energy for self refresh per rank (pJ) (Joule)
board.memory.mem_ctrl.dram.rank0.totalEnergy     17964345                       # Total energy per rank (pJ) (Joule)
board.memory.mem_ctrl.dram.rank0.averagePower  1244.078638                       # Core power per rank (mW) (Watt)
board.memory.mem_ctrl.dram.rank0.totalIdleTime            0                       # Total Idle time Per DRAM Rank (Tick)
board.memory.mem_ctrl.dram.rank0.pwrStateTime::IDLE            0                       # Time in different power states (Tick)
board.memory.mem_ctrl.dram.rank0.pwrStateTime::REF       289694                       # Time in different power states (Tick)
board.memory.mem_ctrl.dram.rank0.pwrStateTime::SREF            0                       # Time in different power states (Tick)
board.memory.mem_ctrl.dram.rank0.pwrStateTime::PRE_PDN            0                       # Time in different power states (Tick)
board.memory.mem_ctrl.dram.rank0.pwrStateTime::ACT     14578502                       # Time in different power states (Tick)
board.memory.mem_ctrl.dram.rank0.pwrStateTime::ACT_PDN            0                       # Time in different power states (Tick)
board.memory.mem_ctrl.dram.rank1.actEnergy       485520                       # Energy for activate commands per rank (pJ) (Joule)
board.memory.mem_ctrl.dram.rank1.preEnergy       258060                       # Energy for precharge commands per rank (pJ) (Joule)
board.memory.mem_ctrl.dram.rank1.readEnergy       257040                       # Energy for read commands per rank (pJ) (Joule)
board.memory.mem_ctrl.dram.rank1.writeEnergy      1492920                       # Energy for write commands per rank (pJ) (Joule)
board.memory.mem_ctrl.dram.rank1.refreshEnergy 1229280.000000                       # Energy for refresh commands per rank (pJ) (Joule)
board.memory.mem_ctrl.dram.rank1.actBackEnergy      7061730                       # Energy for active background per rank (pJ) (Joule)
board.memory.mem_ctrl.dram.rank1.preBackEnergy        15840                       # Energy for precharge background per rank (pJ) (Joule)
board.memory.mem_ctrl.dram.rank1.actPowerDownEnergy            0                       # Energy for active power-down per rank (pJ) (Joule)
board.memory.mem_ctrl.dram.rank1.prePowerDownEnergy            0                       # Energy for precharge power-down per rank (pJ) (Joule)
board.memory.mem_ctrl.dram.rank1.selfRefreshEnergy            0                       # Energy for self refresh per rank (pJ) (Joule)
board.memory.mem_ctrl.dram.rank1.totalEnergy     10800390                       # Total energy per rank (pJ) (Joule)
board.memory.mem_ctrl.dram.rank1.averagePower   747.955713                       # Core power per rank (mW) (Watt)
board.memory.mem_ctrl.dram.rank1.totalIdleTime            0                       # Total Idle time Per DRAM Rank (Tick)
board.memory.mem_ctrl.dram.rank1.pwrStateTime::IDLE            0                       # Time in different power states (Tick)
board.memory.mem_ctrl.dram.rank1.pwrStateTime::REF       294026                       # Time in different power states (Tick)
board.memory.mem_ctrl.dram.rank1.pwrStateTime::SREF            0                       # Time in different power states (Tick)
board.memory.mem_ctrl.dram.rank1.pwrStateTime::PRE_PDN            0                       # Time in different power states (Tick)
board.memory.mem_ctrl.dram.rank1.pwrStateTime::ACT     15021647                       # Time in different power states (Tick)
board.memory.mem_ctrl.dram.rank1.pwrStateTime::ACT_PDN            0                       # Time in different power states (Tick)
board.memory.mem_ctrl.power_state.pwrStateResidencyTicks::UNDEFINED     31192776                       # Cumulative time (in ticks) in various power states (Tick)
board.processor.cores.core.numCycles            43363                       # Number of cpu cycles simulated (Cycle)
board.processor.cores.core.cpi               7.052041                       # CPI: cycles per instruction (core level) ((Cycle/Count))
board.processor.cores.core.ipc               0.141803                       # IPC: instructions per cycle (core level) ((Count/Cycle))
board.processor.cores.core.numWorkItemsStarted            0                       # Number of work items this cpu started (Count)
board.processor.cores.core.numWorkItemsCompleted            0                       # Number of work items this cpu completed (Count)
board.processor.cores.core.instsAdded           42315                       # Number of instructions added to the IQ (excludes non-spec) (Count)
board.processor.cores.core.nonSpecInstsAdded            7                       # Number of non-speculative instructions added to the IQ (Count)
board.processor.cores.core.instsIssued          27300                       # Number of instructions issued (Count)
board.processor.cores.core.squashedInstsIssued            1                       # Number of squashed instructions issued (Count)
board.processor.cores.core.squashedInstsExamined        36162                       # Number of squashed instructions iterated over during squash; mainly for profiling (Count)
board.processor.cores.core.squashedOperandsExamined        31561                       # Number of squashed operands that are examined and possibly removed from graph (Count)
board.processor.cores.core.numIssuedDist::samples        28972                       # Number of insts issued each cycle (Count)
board.processor.cores.core.numIssuedDist::mean     0.942289                       # Number of insts issued each cycle (Count)
board.processor.cores.core.numIssuedDist::stdev     1.408019                       # Number of insts issued each cycle (Count)
board.processor.cores.core.numIssuedDist::underflows            0      0.00%      0.00% # Number of insts issued each cycle (Count)
board.processor.cores.core.numIssuedDist::0        18390     63.48%     63.48% # Number of insts issued each cycle (Count)
board.processor.cores.core.numIssuedDist::1         2016      6.96%     70.43% # Number of insts issued each cycle (Count)
board.processor.cores.core.numIssuedDist::2         3015     10.41%     80.84% # Number of insts issued each cycle (Count)
board.processor.cores.core.numIssuedDist::3         3371     11.64%     92.48% # Number of insts issued each cycle (Count)
board.processor.cores.core.numIssuedDist::4         1797      6.20%     98.68% # Number of insts issued each cycle (Count)
board.processor.cores.core.numIssuedDist::5          345      1.19%     99.87% # Number of insts issued each cycle (Count)
board.processor.cores.core.numIssuedDist::6           38      0.13%    100.00% # Number of insts issued each cycle (Count)
board.processor.cores.core.numIssuedDist::7            0      0.00%    100.00% # Number of insts issued each cycle (Count)
board.processor.cores.core.numIssuedDist::8            0      0.00%    100.00% # Number of insts issued each cycle (Count)
board.processor.cores.core.numIssuedDist::overflows            0      0.00%    100.00% # Number of insts issued each cycle (Count)
board.processor.cores.core.numIssuedDist::min_value            0                       # Number of insts issued each cycle (Count)
board.processor.cores.core.numIssuedDist::max_value            6                       # Number of insts issued each cycle (Count)
board.processor.cores.core.numIssuedDist::total        28972                       # Number of insts issued each cycle (Count)
board.processor.cores.core.statFuBusy::No_OpClass            0      0.00%      0.00% # attempts to use FU when none available (Count)
board.processor.cores.core.statFuBusy::IntAlu            0      0.00%      0.00% # attempts to use FU when none available (Count)
board.processor.cores.core.statFuBusy::IntMult            0      0.00%      0.00% # attempts to use FU when none available (Count)
board.processor.cores.core.statFuBusy::IntDiv            0      0.00%      0.00% # attempts to use FU when none available (Count)
board.processor.cores.core.statFuBusy::FloatAdd            0      0.00%      0.00% # attempts to use FU when none available (Count)
board.processor.cores.core.statFuBusy::FloatCmp            0      0.00%      0.00% # attempts to use FU when none available (Count)
board.processor.cores.core.statFuBusy::FloatCvt            0      0.00%      0.00% # attempts to use FU when none available (Count)
board.processor.cores.core.statFuBusy::FloatMult            0      0.00%      0.00% # attempts to use FU when none available (Count)
board.processor.cores.core.statFuBusy::FloatMultAcc            0      0.00%      0.00% # attempts to use FU when none available (Count)
board.processor.cores.core.statFuBusy::FloatDiv            0      0.00%      0.00% # attempts to use FU when none available (Count)
board.processor.cores.core.statFuBusy::FloatMisc            0      0.00%      0.00% # attempts to use FU when none available (Count)
board.processor.cores.core.statFuBusy::FloatSqrt            0      0.00%      0.00% # attempts to use FU when none available (Count)
board.processor.cores.core.statFuBusy::SimdAdd            0      0.00%      0.00% # attempts to use FU when none available (Count)
board.processor.cores.core.statFuBusy::SimdAddAcc            0      0.00%      0.00% # attempts to use FU when none available (Count)
board.processor.cores.core.statFuBusy::SimdAlu            0      0.00%      0.00% # attempts to use FU when none available (Count)
board.processor.cores.core.statFuBusy::SimdCmp            0      0.00%      0.00% # attempts to use FU when none available (Count)
board.processor.cores.core.statFuBusy::SimdCvt            0      0.00%      0.00% # attempts to use FU when none available (Count)
board.processor.cores.core.statFuBusy::SimdMisc            0      0.00%      0.00% # attempts to use FU when none available (Count)
board.processor.cores.core.statFuBusy::SimdMult            0      0.00%      0.00% # attempts to use FU when none available (Count)
board.processor.cores.core.statFuBusy::SimdMultAcc            0      0.00%      0.00% # attempts to use FU when none available (Count)
board.processor.cores.core.statFuBusy::SimdMatMultAcc            0      0.00%      0.00% # attempts to use FU when none available (Count)
board.processor.cores.core.statFuBusy::SimdShift            0      0.00%      0.00% # attempts to use FU when none available (Count)
board.processor.cores.core.statFuBusy::SimdShiftAcc            0      0.00%      0.00% # attempts to use FU when none available (Count)
board.processor.cores.core.statFuBusy::SimdDiv            0      0.00%      0.00% # attempts to use FU when none available (Count)
board.processor.cores.core.statFuBusy::SimdSqrt            0      0.00%      0.00% # attempts to use FU when none available (Count)
board.processor.cores.core.statFuBusy::SimdFloatAdd            0      0.00%      0.00% # attempts to use FU when none available (Count)
board.processor.cores.core.statFuBusy::SimdFloatAlu            0      0.00%      0.00% # attempts to use FU when none available (Count)
board.processor.cores.core.statFuBusy::SimdFloatCmp            0      0.00%      0.00% # attempts to use FU when none available (Count)
board.processor.cores.core.statFuBusy::SimdFloatCvt            0      0.00%      0.00% # attempts to use FU when none available (Count)
board.processor.cores.core.statFuBusy::SimdFloatDiv            0      0.00%      0.00% # attempts to use FU when none available (Count)
board.processor.cores.core.statFuBusy::SimdFloatMisc            0      0.00%      0.00% # attempts to use FU when none available (Count)
board.processor.cores.core.statFuBusy::SimdFloatMult            0      0.00%      0.00% # attempts to use FU when none available (Count)
board.processor.cores.core.statFuBusy::SimdFloatMultAcc            0      0.00%      0.00% # attempts to use FU when none available (Count)
board.processor.cores.core.statFuBusy::SimdFloatMatMultAcc            0      0.00%      0.00% # attempts to use FU when none available (Count)
board.processor.cores.core.statFuBusy::SimdFloatSqrt            0      0.00%      0.00% # attempts to use FU when none available (Count)
board.processor.cores.core.statFuBusy::SimdReduceAdd            0      0.00%      0.00% # attempts to use FU when none available (Count)
board.processor.cores.core.statFuBusy::SimdReduceAlu            0      0.00%      0.00% # attempts to use FU when none available (Count)
board.processor.cores.core.statFuBusy::SimdReduceCmp            0      0.00%      0.00% # attempts to use FU when none available (Count)
board.processor.cores.core.statFuBusy::SimdFloatReduceAdd            0      0.00%      0.00% # attempts to use FU when none available (Count)
[...]
board.processor.cores.core.iew.writebackCount        19073                       # Cumulative count of insts written-back (Count)
board.processor.cores.core.iew.producerInst        12131                       # Number of instructions producing a value (Count)
board.processor.cores.core.iew.consumerInst        19148                       # Number of instructions consuming a value (Count)
board.processor.cores.core.iew.wbRate        0.317931                       # Insts written-back per cycle ((Count/Cycle))
board.processor.cores.core.iew.wbFanout      0.633539                       # Average fanout of values written-back ((Count/Count))
board.processor.cores.core.lsq0.forwLoads           19                       # Number of loads that had data forwarded from stores (Count)
board.processor.cores.core.lsq0.squashedLoads        12422                       # Number of loads squashed (Count)
board.processor.cores.core.lsq0.ignoredResponses           17                       # Number of memory responses ignored because the instruction is squashed (Count)
board.processor.cores.core.lsq0.memOrderViolation           78                       # Number of memory ordering violations (Count)
board.processor.cores.core.lsq0.squashedStores         6384                       # Number of stores squashed (Count)
board.processor.cores.core.lsq0.rescheduledLoads            5                       # Number of loads that were rescheduled (Count)
board.processor.cores.core.lsq0.blockedByCache            0                       # Number of times an access to memory failed due to the cache being blocked (Count)
board.processor.cores.core.lsq0.loadToUse::samples         2405                       # Distribution of cycle latency between the first time a load is issued and its completion (Unspecified)
board.processor.cores.core.lsq0.loadToUse::mean     2.694387                       # Distribution of cycle latency between the first time a load is issued and its completion (Unspecified)
board.processor.cores.core.lsq0.loadToUse::stdev    15.012923                       # Distribution of cycle latency between the first time a load is issued and its completion (Unspecified)
board.processor.cores.core.lsq0.loadToUse::0-9         2400     99.79%     99.79% # Distribution of cycle latency between the first time a load is issued and its completion (Unspecified)
board.processor.cores.core.lsq0.loadToUse::200-209            1      0.04%     99.83% # Distribution of cycle latency between the first time a load is issued and its completion (Unspecified)
board.processor.cores.core.lsq0.loadToUse::240-249            1      0.04%     99.88% # Distribution of cycle latency between the first time a load is issued and its completion (Unspecified)
board.processor.cores.core.lsq0.loadToUse::280-289            1      0.04%     99.92% # Distribution of cycle latency between the first time a load is issued and its completion (Unspecified)
board.processor.cores.core.lsq0.loadToUse::overflows            2      0.08%    100.00% # Distribution of cycle latency between the first time a load is issued and its completion (Unspecified)
board.processor.cores.core.lsq0.loadToUse::min_value            2                       # Distribution of cycle latency between the first time a load is issued and its completion (Unspecified)
board.processor.cores.core.lsq0.loadToUse::max_value          489                       # Distribution of cycle latency between the first time a load is issued and its completion (Unspecified)
board.processor.cores.core.lsq0.loadToUse::total         2405                       # Distribution of cycle latency between the first time a load is issued and its completion (Unspecified)
board.processor.cores.core.mmu.alignFaults            0                       # Number of MMU faults due to alignment restrictions (Count)
board.processor.cores.core.mmu.prefetchFaults            0                       # Number of MMU faults due to prefetch (Count)
board.processor.cores.core.mmu.domainFaults            0                       # Number of MMU faults due to domain restrictions (Count)
board.processor.cores.core.mmu.permsFaults            0                       # Number of MMU faults due to permissions restrictions (Count)
board.processor.cores.core.mmu.dtb.readHits            0                       # Read hits (Count)
board.processor.cores.core.mmu.dtb.readMisses            0                       # Read misses (Count)
board.processor.cores.core.mmu.dtb.writeHits            0                       # Write hits (Count)
board.processor.cores.core.mmu.dtb.writeMisses            0                       # Write misses (Count)
board.processor.cores.core.mmu.dtb.inserts            0                       # Number of times an entry is inserted into the TLB (Count)
board.processor.cores.core.mmu.dtb.flushTlb            0                       # Number of times a TLB invalidation was requested (Count)
board.processor.cores.core.mmu.dtb.flushedEntries            0                       # Number of entries that have been flushed from TLB (Count)
board.processor.cores.core.mmu.dtb.readAccesses            0                       # Read accesses (Count)
board.processor.cores.core.mmu.dtb.writeAccesses            0                       # Write accesses (Count)
board.processor.cores.core.mmu.dtb.hits             0                       # Total TLB (inst and data) hits (Count)
board.processor.cores.core.mmu.dtb.misses            0                       # Total TLB (inst and data) misses (Count)
board.processor.cores.core.mmu.dtb.accesses            0                       # Total TLB (inst and data) accesses (Count)
board.processor.cores.core.mmu.dtb_walker.walks            0                       # Table walker walks requested (Count)
board.processor.cores.core.mmu.dtb_walker.requestOrigin_Requested::Data            0                       # Table walker requests started/completed, data/inst (Count)
board.processor.cores.core.mmu.dtb_walker.requestOrigin_Requested::Inst            0                       # Table walker requests started/completed, data/inst (Count)
board.processor.cores.core.mmu.dtb_walker.requestOrigin_Requested::total            0                       # Table walker requests started/completed, data/inst (Count)
board.processor.cores.core.mmu.dtb_walker.requestOrigin_Completed::Data            0                       # Table walker requests started/completed, data/inst (Count)
board.processor.cores.core.mmu.dtb_walker.requestOrigin_Completed::Inst            0                       # Table walker requests started/completed, data/inst (Count)
board.processor.cores.core.mmu.dtb_walker.requestOrigin_Completed::total            0                       # Table walker requests started/completed, data/inst (Count)
board.processor.cores.core.mmu.dtb_walker.requestOrigin::total            0                       # Table walker requests started/completed, data/inst (Count)
board.processor.cores.core.mmu.dtb_walker.power_state.pwrStateResidencyTicks::UNDEFINED     22123854                       # Cumulative time (in ticks) in various power states (Tick)
board.processor.cores.core.mmu.itb.instHits            0                       # Inst hits (Count)
board.processor.cores.core.mmu.itb.instMisses            0                       # Inst misses (Count)
board.processor.cores.core.mmu.itb.inserts            0                       # Number of times an entry is inserted into the TLB (Count)
board.processor.cores.core.mmu.itb.flushTlb            0                       # Number of times a TLB invalidation was requested (Count)
board.processor.cores.core.mmu.itb.flushedEntries            0                       # Number of entries that have been flushed from TLB (Count)
board.processor.cores.core.mmu.itb.instAccesses            0                       # Inst accesses (Count)
board.processor.cores.core.mmu.itb.hits             0                       # Total TLB (inst and data) hits (Count)
board.processor.cores.core.mmu.itb.misses            0                       # Total TLB (inst and data) misses (Count)
board.processor.cores.core.mmu.itb.accesses            0                       # Total TLB (inst and data) accesses (Count)
board.processor.cores.core.mmu.itb_walker.walks            0                       # Table walker walks requested (Count)
board.processor.cores.core.mmu.itb_walker.requestOrigin_Requested::Data            0                       # Table walker requests started/completed, data/inst (Count)
board.processor.cores.core.mmu.itb_walker.requestOrigin_Requested::Inst            0                       # Table walker requests started/completed, data/inst (Count)
board.processor.cores.core.mmu.itb_walker.requestOrigin_Requested::total            0                       # Table walker requests started/completed, data/inst (Count)
board.processor.cores.core.mmu.itb_walker.requestOrigin_Completed::Data            0                       # Table walker requests started/completed, data/inst (Count)
board.processor.cores.core.mmu.itb_walker.requestOrigin_Completed::Inst            0                       # Table walker requests started/completed, data/inst (Count)
board.processor.cores.core.mmu.itb_walker.requestOrigin_Completed::total            0                       # Table walker requests started/completed, data/inst (Count)
board.processor.cores.core.mmu.itb_walker.requestOrigin::total            0                       # Table walker requests started/completed, data/inst (Count)
board.processor.cores.core.mmu.itb_walker.power_state.pwrStateResidencyTicks::UNDEFINED     22123854                       # Cumulative time (in ticks) in various power states (Tick)
board.processor.cores.core.mmu.l2_shared.instHits            0                       # Inst hits (Count)
board.processor.cores.core.mmu.l2_shared.instMisses            0                       # Inst misses (Count)
board.processor.cores.core.mmu.l2_shared.inserts            0                       # Number of times an entry is inserted into the TLB (Count)
board.processor.cores.core.mmu.l2_shared.flushTlb            0                       # Number of times a TLB invalidation was requested (Count)
board.processor.cores.core.mmu.l2_shared.flushedEntries            0                       # Number of entries that have been flushed from TLB (Count)
board.processor.cores.core.mmu.l2_shared.instAccesses            0                       # Inst accesses (Count)
board.processor.cores.core.mmu.l2_shared.hits            0                       # Total TLB (inst and data) hits (Count)
board.processor.cores.core.mmu.l2_shared.misses            0                       # Total TLB (inst and data) misses (Count)
board.processor.cores.core.mmu.l2_shared.accesses            0                       # Total TLB (inst and data) accesses (Count)
board.processor.cores.core.mmu.stage2_dtb.readHits            0                       # Read hits (Count)
board.processor.cores.core.mmu.stage2_dtb.readMisses            0                       # Read misses (Count)
board.processor.cores.core.mmu.stage2_dtb.writeHits            0                       # Write hits (Count)
board.processor.cores.core.mmu.stage2_dtb.writeMisses            0                       # Write misses (Count)
board.processor.cores.core.mmu.stage2_dtb.inserts            0                       # Number of times an entry is inserted into the TLB (Count)
board.processor.cores.core.mmu.stage2_dtb.flushTlb            0                       # Number of times a TLB invalidation was requested (Count)
board.processor.cores.core.mmu.stage2_dtb.flushedEntries            0                       # Number of entries that have been flushed from TLB (Count)
board.processor.cores.core.mmu.stage2_dtb.readAccesses            0                       # Read accesses (Count)
board.processor.cores.core.mmu.stage2_dtb.writeAccesses            0                       # Write accesses (Count)
board.processor.cores.core.mmu.stage2_dtb.hits            0                       # Total TLB (inst and data) hits (Count)
board.processor.cores.core.mmu.stage2_dtb.misses            0                       # Total TLB (inst and data) misses (Count)
board.processor.cores.core.mmu.stage2_dtb.accesses            0                       # Total TLB (inst and data) accesses (Count)
board.processor.cores.core.mmu.stage2_dtb_walker.walks            0                       # Table walker walks requested (Count)
board.processor.cores.core.mmu.stage2_dtb_walker.requestOrigin_Requested::Data            0                       # Table walker requests started/completed, data/inst (Count)
board.processor.cores.core.mmu.stage2_dtb_walker.requestOrigin_Requested::Inst            0                       # Table walker requests started/completed, data/inst (Count)
board.processor.cores.core.mmu.stage2_dtb_walker.requestOrigin_Requested::total            0                       # Table walker requests started/completed, data/inst (Count)
board.processor.cores.core.mmu.stage2_dtb_walker.requestOrigin_Completed::Data            0                       # Table walker requests started/completed, data/inst (Count)
board.processor.cores.core.mmu.stage2_dtb_walker.requestOrigin_Completed::Inst            0                       # Table walker requests started/completed, data/inst (Count)
board.processor.cores.core.mmu.stage2_dtb_walker.requestOrigin_Completed::total            0                       # Table walker requests started/completed, data/inst (Count)
board.processor.cores.core.mmu.stage2_dtb_walker.requestOrigin::total            0                       # Table walker requests started/completed, data/inst (Count)
board.processor.cores.core.mmu.stage2_dtb_walker.power_state.pwrStateResidencyTicks::UNDEFINED     22123854                       # Cumulative time (in ticks) in various power states (Tick)
board.processor.cores.core.mmu.stage2_itb.instHits            0                       # Inst hits (Count)
board.processor.cores.core.mmu.stage2_itb.instMisses            0                       # Inst misses (Count)
board.processor.cores.core.mmu.stage2_itb.inserts            0                       # Number of times an entry is inserted into the TLB (Count)
board.processor.cores.core.mmu.stage2_itb.flushTlb            0                       # Number of times a TLB invalidation was requested (Count)
board.processor.cores.core.mmu.stage2_itb.flushedEntries            0                       # Number of entries that have been flushed from TLB (Count)
board.processor.cores.core.mmu.stage2_itb.instAccesses            0                       # Inst accesses (Count)
board.processor.cores.core.mmu.stage2_itb.hits            0                       # Total TLB (inst and data) hits (Count)
board.processor.cores.core.mmu.stage2_itb.misses            0                       # Total TLB (inst and data) misses (Count)
board.processor.cores.core.mmu.stage2_itb.accesses            0                       # Total TLB (inst and data) accesses (Count)
board.processor.cores.core.mmu.stage2_itb_walker.walks            0                       # Table walker walks requested (Count)
board.processor.cores.core.mmu.stage2_itb_walker.requestOrigin_Requested::Data            0                       # Table walker requests started/completed, data/inst (Count)
board.processor.cores.core.mmu.stage2_itb_walker.requestOrigin_Requested::Inst            0                       # Table walker requests started/completed, data/inst (Count)
board.processor.cores.core.mmu.stage2_itb_walker.requestOrigin_Requested::total            0                       # Table walker requests started/completed, data/inst (Count)
board.processor.cores.core.mmu.stage2_itb_walker.requestOrigin_Completed::Data            0                       # Table walker requests started/completed, data/inst (Count)
board.processor.cores.core.mmu.stage2_itb_walker.requestOrigin_Completed::Inst            0                       # Table walker requests started/completed, data/inst (Count)
board.processor.cores.core.mmu.stage2_itb_walker.requestOrigin_Completed::total            0                       # Table walker requests started/completed, data/inst (Count)
board.processor.cores.core.mmu.stage2_itb_walker.requestOrigin::total            0                       # Table walker requests started/completed, data/inst (Count)
board.processor.cores.core.mmu.stage2_itb_walker.power_state.pwrStateResidencyTicks::UNDEFINED     22123854                       # Cumulative time (in ticks) in various power states (Tick)
board.processor.cores.core.power_state.pwrStateResidencyTicks::ON     22123854                       # Cumulative time (in ticks) in various power states (Tick)
board.processor.cores.core.rename.squashCycles         2203                       # Number of cycles rename is squashing (Cycle)
board.processor.cores.core.rename.idleCycles        14611                       # Number of cycles rename is idle (Cycle)
board.processor.cores.core.rename.blockCycles         3557                       # Number of cycles rename is blocking (Cycle)
board.processor.cores.core.rename.serializeStallCycles          380                       # count of cycles rename stalled for serializing inst (Cycle)
board.processor.cores.core.rename.runCycles        12591                       # Number of cycles rename is running (Cycle)
board.processor.cores.core.rename.unblockCycles           17                       # Number of cycles rename is unblocking (Cycle)
board.processor.cores.core.rename.renamedInsts        51042                       # Number of instructions processed by rename (Count)
board.processor.cores.core.rename.IQFullEvents            1                       # Number of times rename has blocked due to IQ full (Count)
board.processor.cores.core.rename.renamedOperands        61079                       # Number of destination operands rename has renamed (Count)
board.processor.cores.core.rename.lookups        75894                       # Number of register rename lookups that rename has made (Count)
board.processor.cores.core.rename.intLookups        50155                       # Number of integer rename lookups (Count)
board.processor.cores.core.rename.vecLookups           99                       # Number of vector rename lookups (Count)
board.processor.cores.core.rename.committedMaps        12178                       # Number of HB maps that are committed (Count)
board.processor.cores.core.rename.undoneMaps        48902                       # Number of HB maps that are undone due to squashing (Count)
board.processor.cores.core.rename.serializing           39                       # count of serializing insts renamed (Count)
board.processor.cores.core.rename.tempSerializing           23                       # count of temporary serializing insts renamed (Count)
board.processor.cores.core.rename.skidInsts          238                       # count of insts added to the skid buffer (Count)
board.processor.cores.core.rob.reads            72164                       # The number of ROB reads (Count)
board.processor.cores.core.rob.writes           94035                       # The number of ROB writes (Count)
board.processor.cores.core.thread_0.numInsts         7910                       # Number of Instructions committed (Count)
board.processor.cores.core.thread_0.numOps         8216                       # Number of Ops committed (Count)
board.processor.cores.core.thread_0.numMemRefs            0                       # Number of Memory References (Count)
board.processor.cores.core.workload.numSyscalls            2                       # Number of system calls (Count)
board.workload.inst.arm                             0                       # number of arm instructions executed (Count)
board.workload.inst.quiesce                         0                       # number of quiesce instructions executed (Count)

---------- End Simulation Statistics   ----------
